1       12                                
  1C 1 0  22  61  00  00  00  00  141  179    0--.... 
  2C 1 0  12  31  00  00  00  00  156  205    0--.... 
  3C 0 0  21  42 115  00  00  00  186  205    0---... 
  4C 1 0  32  51  00  00  00  00  201  179    0--.... 
  5C 1 0  41  62  00  00  00  00  186  153    0--.... 
  6C 0 0  52  11  75  00  00  00  156  153    0---... 
  7N 1 0  65  85  00  00  00  00  149  118    0--.... 
  8C 0 0  75  95 106  00  00  00  149   88    0---... 
  9C 3 0  85  00  00  00  00  00  149   58    0-..... 
 10O 0 0  86  00  00  00  00  00  193   88    0-..... 
 11O 0 0  35 125  00  00  00  00  201  231    0--.... 
 12C 3 0 115  00  00  00  00  00  216  257    0-..... 
2       10                                
  1C 1 0  22  61  00  00  00  00  173  191    0--.... 
  2C 1 0  12  31  00  00  00  00  188  217    0--.... 
  3C 1 0  21  42  00  00  00  00  218  217    0--.... 
  4C 1 0  32  51  00  00  00  00  233  191    0--.... 
  5C 1 0  41  62  00  00  00  00  218  165    0--.... 
  6C 0 0  52  11  75  00  00  00  188  165    0---... 
  7N 1 0  65  85  00  00  00  00  188  135    0--.... 
  8C 0 0  75  95 106  00  00  00  188  105    0---... 
  9C 3 0  85  00  00  00  00  00  203   79    0-..... 
 10O 0 0  86  00  00  00  00  00  218  105    0-..... 
3       11                                
  1C 1 0  22  61  00  00  00  00  219  190    0--.... 
  2C 1 0  12  31  00  00  00  00  234  216    0--.... 
  3C 0 0  21  42 115  00  00  00  264  216    0---... 
  4C 1 0  32  51  00  00  00  00  279  190    0--.... 
  5C 1 0  41  62  00  00  00  00  264  164    0--.... 
  6C 0 0  52  11  75  00  00  00  234  164    0---... 
  7N 1 0  65  85  00  00  00  00  234  134    0--.... 
  8C 0 0  75  95 106  00  00  00  234  104    0---... 
  9C 3 0  85  00  00  00  00  00  234   74    0-..... 
 10O 0 0  86  00  00  00  00  00  267  105    0-..... 
 11BR0 0  35  00  00  00  00  00  279  242    0-..... 
4       13                                
  1C 1 0  22  61  00  00  00  00  219  190    0--.... 
  2C 1 0  12  31  00  00  00  00  234  216    0--.... 
  3C 1 0  21  42  00  00  00  00  264  216    0--.... 
  4C 0 0  32  51 115  00  00  00  279  190    0---... 
  5C 1 0  41  62  00  00  00  00  264  164    0--.... 
  6C 0 0  52  11  75  00  00  00  234  164    0---... 
  7N 1 0  65  85  00  00  00  00  234  134    0--.... 
  8C 0 0  75  95 106  00  00  00  234  104    0---... 
  9C 3 0  85  00  00  00  00  00  234   74    0-..... 
 10O 0 0  86  00  00  00  00  00  267  105    0-..... 
 11N 0 0  45 126 136  00  00  00  309  190    0---... 
 12O 0 0 116  00  00  00  00  00  324  164    0-..... 
 13O 0 0 116  00  00  00  00  00  324  216    0-..... 
5       11                                
  1C 1 0  22  61  00  00  00  00  219  190    0--.... 
  2C 1 0  12  31  00  00  00  00  234  216    0--.... 
  3C 1 0  21  42  00  00  00  00  264  216    0--.... 
  4C 0 0  32  51 115  00  00  00  279  190    0---... 
  5C 1 0  41  62  00  00  00  00  264  164    0--.... 
  6C 0 0  52  11  75  00  00  00  234  164    0---... 
  7N 1 0  65  85  00  00  00  00  234  134    0--.... 
  8C 0 0  75  95 106  00  00  00  234  104    0---... 
  9C 3 0  85  00  00  00  00  00  234   74    0-..... 
 10O 0 0  86  00  00  00  00  00  267  105    0-..... 
 11F 0 0  45  00  00  00  00  00  309  190    0-..... 
6       14                                
  1C 1 0  22  61  00  00  00  00  219  190    0--.... 
  2C 1 0  12  31  00  00  00  00  234  216    0--.... 
  3C 1 0  21  42  00  00  00  00  264  216    0--.... 
  4C 0 0  32  51 115  00  00  00  279  190    0---... 
  5C 1 0  41  62  00  00  00  00  264  164    0--.... 
  6C 0 0  52  11  75  00  00  00  234  164    0---... 
  7N 1 0  65  85  00  00  00  00  234  134    0--.... 
  8C 0 0  75  95 106  00  00  00  234  104    0---... 
  9C 3 0  85  00  00  00  00  00  234   74    0-..... 
 10O 0 0  86  00  00  00  00  00  267  105    0-..... 
 11C 0 0  45 125 135 145  00  00  309  190    0----.. 
 12F 0 0 115  00  00  00  00  00  324  164    0-..... 
 13F 0 0 115  00  00  00  00  00  339  190    0-..... 
 14F 0 0 115  00  00  00  00  00  309  220    0-..... 
7       11                                
  1C 1 0  22  61  00  00  00  00  219  190    0--.... 
  2C 1 0  12  31  00  00  00  00  234  216    0--.... 
  3C 0 0  21  42 115  00  00  00  264  216    0---... 
  4C 1 0  32  51  00  00  00  00  279  190    0--.... 
  5C 1 0  41  62  00  00  00  00  264  164    0--.... 
  6C 0 0  52  11  75  00  00  00  234  164    0---... 
  7N 1 0  65  85  00  00  00  00  234  134    0--.... 
  8C 0 0  75  95 106  00  00  00  234  104    0---... 
  9C 3 0  85  00  00  00  00  00  234   74    0-..... 
 10O 0 0  86  00  00  00  00  00  267  105    0-..... 
 11F 0 0  35  00  00  00  00  00  279  242    0-..... 
8       11                                
  1C 1 0  22  61  00  00  00  00  232  199    0--.... 
  2C 1 0  12  31  00  00  00  00  247  225    0--.... 
  3C 1 0  21  42  00  00  00  00  277  225    0--.... 
  4C 0 0  32  51 115  00  00  00  292  199    0---... 
  5C 1 0  41  62  00  00  00  00  277  173    0--.... 
  6C 0 0  52  11  75  00  00  00  247  173    0---... 
  7N 1 0  65  85  00  00  00  00  232  147    0--.... 
  8C 0 0  75  95 106  00  00  00  232  117    0---... 
  9C 3 0  85  00  00  00  00  00  232   87    0-..... 
 10O 0 0  86  00  00  00  00  00  262  117    0-..... 
 11C 3 0  45  00  00  00  00  00  322  199    0-..... 
9       11                                
  1C 1 0  22  61  00  00  00  00  232  199    0--.... 
  2C 1 0  12  31  00  00  00  00  247  225    0--.... 
  3C 1 0  21  42  00  00  00  00  277  225    0--.... 
  4C 0 0  32  51 115  00  00  00  292  199    0---... 
  5C 1 0  41  62  00  00  00  00  277  173    0--.... 
  6C 0 0  52  11  75  00  00  00  247  173    0---... 
  7N 1 0  65  85  00  00  00  00  232  147    0--.... 
  8C 0 0  75  95 106  00  00  00  232  117    0---... 
  9C 3 0  85  00  00  00  00  00  232   87    0-..... 
 10O 0 0  86  00  00  00  00  00  262  117    0-..... 
 11CL0 0  45  00  00  00  00  00  322  199    0-..... 
10      11                                
  1C 1 0  22  61  00  00  00  00  232  199    0--.... 
  2C 1 0  12  31  00  00  00  00  247  225    0--.... 
  3C 1 0  21  42  00  00  00  00  277  225    0--.... 
  4C 0 0  32  51 115  00  00  00  292  199    0---... 
  5C 1 0  41  62  00  00  00  00  277  173    0--.... 
  6C 0 0  52  11  75  00  00  00  247  173    0---... 
  7N 1 0  65  85  00  00  00  00  232  147    0--.... 
  8C 0 0  75  95 106  00  00  00  232  117    0---... 
  9C 3 0  85  00  00  00  00  00  232   87    0-..... 
 10O 0 0  86  00  00  00  00  00  262  117    0-..... 
 11BR0 0  45  00  00  00  00  00  322  199    0-..... 
11      17                                
  1C 1 0  22  61  00  00  00  00  232  278    0--.... 
  2C 1 0  12  31  00  00  00  00  247  304    0--.... 
  3C 1 0  21  42  00  00  00  00  277  304    0--.... 
  4C 1 0  32  51  00  00  00  00  292  278    0--.... 
  5C 1 0  41  62  00  00  00  00  277  252    0--.... 
  6C 0 0  52  11  75  00  00  00  247  252    0---... 
  7N 1 0  65  85  00  00  00  00  232  226    0--.... 
  8C 0 0  75  95 106  00  00  00  232  196    0---... 
  9C 2 0  85 115  00  00  00  00  232  166    0--.... 
 10O 0 0  86  00  00  00  00  00  262  196    0-..... 
 11C 1 0  95 125 135  00  00  00  247  140    0---... 
 12C 3 0 115  00  00  00  00  00  277  140    0-..... 
 13N 0 0 115 145 165  00  00  00  221  125    0---... 
 14C 2 0 135 155  00  00  00  00  191  125    0--.... 
 15C 3 0 145  00  00  00  00  00  161  125    0-..... 
 16C 2 0 135 175  00  00  00  00  206   99    0--.... 
 17C 3 0 165  00  00  00  00  00  176   99    0-..... 
12      14                                
  1C 1 0  22  61  00  00  00  00  232  278    0--.... 
  2C 1 0  12  31  00  00  00  00  247  304    0--.... 
  3C 1 0  21  42  00  00  00  00  277  304    0--.... 
  4C 1 0  32  51  00  00  00  00  292  278    0--.... 
  5C 1 0  41  62  00  00  00  00  277  252    0--.... 
  6C 0 0  52  11  75  00  00  00  247  252    0---... 
  7N 0 0  65  85 125  00  00  00  232  226    0---... 
  8C 0 0  75  95 116  00  00  00  232  196    0---... 
  9C 2 0  85 105  00  00  00  00  232  166    0--.... 
 10CL0 0  95  00  00  00  00  00  232  136    0-..... 
 11O 0 0  86  00  00  00  00  00  262  196    0-..... 
 12C 1 0  75 135 145  00  00  00  202  226    0---... 
 13C 3 0 125  00  00  00  00  00  202  196    0-..... 
 14C 3 0 125  00  00  00  00  00  202  256    0-..... 
13      12                                
  1C 1 0  22  61  00  00  00  00  232  278    0--.... 
  2C 1 0  12  31  00  00  00  00  247  304    0--.... 
  3C 0 0  21  42 125  00  00  00  277  304    0---... 
  4C 0 0  32  51 115  00  00  00  292  278    0---... 
  5C 1 0  41  62  00  00  00  00  277  252    0--.... 
  6C 0 0  52  11  75  00  00  00  247  252    0---... 
  7N 1 0  65  85  00  00  00  00  232  226    0--.... 
  8C 0 0  75  95 106  00  00  00  232  196    0---... 
  9C 3 0  85  00  00  00  00  00  232  166    0-..... 
 10O 0 0  86  00  00  00  00  00  262  196    0-..... 
 11CL0 0  45  00  00  00  00  00  322  278    0-..... 
 12CL0 0  35  00  00  00  00  00  292  330    0-..... 
14      13                                
  1C 1 0  22  61  00  00  00  00  232  278    0--.... 
  2C 1 0  12  31  00  00  00  00  247  304    0--.... 
  3C 0 0  21  42 125  00  00  00  277  304    0---... 
  4C 0 0  32  51 115  00  00  00  292  278    0---... 
  5C 1 0  41  62  00  00  00  00  277  252    0--.... 
  6C 0 0  52  11  75  00  00  00  247  252    0---... 
  7N 1 0  65  85  00  00  00  00  232  226    0--.... 
  8C 0 0  75  95 106  00  00  00  232  196    0---... 
  9C 3 0  85  00  00  00  00  00  232  166    0-..... 
 10O 0 0  86  00  00  00  00  00  262  196    0-..... 
 11CL0 0  45  00  00  00  00  00  322  278    0-..... 
 12O 0 0  35 135  00  00  00  00  292  330    0--.... 
 13C 3 0 125  00  00  00  00  00  318  345    0-..... 
15      18                                
  1C 0 0  22  61 135  00  00  00  232  278    0---... 
  2C 1 0  12  31  00  00  00  00  247  304    0--.... 
  3C 1 0  21  42  00  00  00  00  277  304    0--.... 
  4C 1 0  32  51  00  00  00  00  292  278    0--.... 
  5C 0 0  41  62 115  00  00  00  277  252    0---... 
  6C 0 0  52  11  75  00  00  00  247  252    0---... 
  7N 0 0  65  85 165  00  00  00  232  226    0---... 
  8C 0 0  75  95 106  00  00  00  232  196    0---... 
  9C 2 0  85 155  00  00  00  00  232  166    0--.... 
 10O 0 0  86  00  00  00  00  00  262  196    0-..... 
 11C 2 0  55 125  00  00  00  00  292  226    0--.... 
 12C 3 0 115  00  00  00  00  00  318  211    0-..... 
 13C 2 0  15 145  00  00  00  00  202  278    0--.... 
 14C 3 0 135  00  00  00  00  00  187  304    0-..... 
 15CL0 0  95  00  00  00  00  00  247  140    0-..... 
 16C 2 0  75 175  00  00  00  00  202  226    0--.... 
 17O 0 0 165 185  00  00  00  00  176  241    0--.... 
 18C 3 0 175  00  00  00  00  00  150  226    0-..... 
16      21                                
  1C 0 0  22  61 135  00  00  00  232  278    0---... 
  2C 1 0  12  31  00  00  00  00  247  304    0--.... 
  3C 1 0  21  42  00  00  00  00  277  304    0--.... 
  4C 1 0  32  51  00  00  00  00  292  278    0--.... 
  5C 0 0  41  62 115  00  00  00  277  252    0---... 
  6C 0 0  52  11  75  00  00  00  247  252    0---... 
  7N 0 0  65  85 165  00  00  00  232  226    0---... 
  8C 0 0  75  95 106  00  00  00  232  196    0---... 
  9C 2 0  85 155  00  00  00  00  232  166    0--.... 
 10O 0 0  86  00  00  00  00  00  262  196    0-..... 
 11C 2 0  55 125  00  00  00  00  292  226    0--.... 
 12C 3 0 115  00  00  00  00  00  318  211    0-..... 
 13C 2 0  15 145  00  00  00  00  202  278    0--.... 
 14C 3 0 135  00  00  00  00  00  187  304    0-..... 
 15CL0 0  95  00  00  00  00  00  247  140    0-..... 
 16C 2 0  75 175  00  00  00  00  202  226    0--.... 
 17O 0 0 165 185  00  00  00  00  176  241    0--.... 
 18C 2 0 175 195  00  00  00  00  150  226    0--.... 
 19C 2 0 185 205  00  00  00  00  120  226    0--.... 
 20C 2 0 195 215  00  00  00  00   94  211    0--.... 
 21C 3 0 205  00  00  00  00  00   68  226    0-..... 
17      13                                
  1C 1 0  22  61  00  00  00  00  155  142    0--.... 
  2C 1 0  12  31  00  00  00  00  170  168    0--.... 
  3C 1 0  21  42  00  00  00  00  200  168    0--.... 
  4C 0 0  32  51  91  00  00  00  215  142    0---... 
  5C 0 0  41  62  71  00  00  00  200  116    0---... 
  6C 1 0  52  11  00  00  00  00  170  116    0--.... 
  7C 0 0  51  81 106  00  00  00  215   90    0---... 
  8C 0 0  71  91 112  00  00  00  245   90    0---... 
  9N 0 0  81  41 131  00  00  00  260  116    0---... 
 10O 0 0  76  00  00  00  00  00  200   64    0-..... 
 11C 1 0  82 121  00  00  00  00  260   64    0--.... 
 12C 1 0 111 132  00  00  00  00  290   64    0--.... 
 13C 1 0 122  91  00  00  00  00  305   90    0--.... 
18      18                                
  1C 1 0  22  61  00  00  00  00  112  191    0--.... 
  2C 1 0  12  31  00  00  00  00  127  217    0--.... 
  3C 1 0  21  42  00  00  00  00  157  217    0--.... 
  4C 0 0  32  51 175  00  00  00  172  191    0---... 
  5C 0 0  41  62  85  00  00  00  157  165    0---... 
  6C 0 0  52  11  75  00  00  00  127  165    0---... 
  7C 3 0  65  00  00  00  00  00  112  139    0-..... 
  8N 0 0  55  95 135  00  00  00  172  139    0---... 
  9C 2 0  85 105  00  00  00  00  187  113    0--.... 
 10O 0 0  95 115  00  00  00  00  161   98    0--.... 
 11C 2 0 105 125  00  00  00  00  146   72    0--.... 
 12C 3 0 115  00  00  00  00  00  161   46    0-..... 
 13C 0 0  85 146 155  00  00  00  198  154    0---... 
 14O 0 0 136  00  00  00  00  00  224  139    0-..... 
 15C 2 0 135 165  00  00  00  00  213  180    0--.... 
 16CL0 0 155  00  00  00  00  00  243  180    0-..... 
 17C 2 0  45 185  00  00  00  00  187  217    0--.... 
 18C 3 0 175  00  00  00  00  00  217  217    0-..... 
19      20                                
  1C 1 0  22  61  00  00  00  00  167  202    0--.... 
  2C 1 0  12  31  00  00  00  00  182  228    0--.... 
  3C 0 0  21  42 195  00  00  00  212  228    0---... 
  4C 0 0  32  51  75  00  00  00  227  202    0---... 
  5C 0 0  41  62 185  00  00  00  212  176    0---... 
  6C 1 0  52  11  00  00  00  00  182  176    0--.... 
  7N 0 0  45  85 145  00  00  00  253  187    0---... 
  8C 1 0  75  95 125  00  00  00  283  187    0---... 
  9C 0 0  85 105 136  00  00  00  309  172    0---... 
 10O 0 0  95 115  00  00  00  00  335  187    0--.... 
 11C 3 0 105  00  00  00  00  00  361  172    0-..... 
 12C 3 0  85  00  00  00  00  00  283  217    0-..... 
 13O 0 0  96  00  00  00  00  00  309  142    0-..... 
 14C 0 0  75 155 206  00  00  00  253  157    0---... 
 15C 2 0 145 165  00  00  00  00  227  142    0--.... 
 16O 0 0 155 175  00  00  00  00  227  112    0--.... 
 17C 3 0 165  00  00  00  00  00  201   97    0-..... 
 18C 3 0  55  00  00  00  00  00  212  146    0-..... 
 19C 3 0  35  00  00  00  00  00  227  254    0-..... 
 20O 0 0 146  00  00  00  00  00  276  149    0-..... 
20       2                                
  1C 3 0  25  00  00  00  00  00  246  148    0-..... 
  2O 1 0  15  00  00  00  00  00  229  120    0-..... 
21       3                                
  1C 2 0  25  35  00  00  00  00  246  148    0--.... 
  2O 1 0  15  00  00  00  00  00  229  120    0-..... 
  3C 3 0  15  00  00  00  00  00  286  146    0-..... 
22       4                                
  1C 2 0  25  35  00  00  00  00  246  148    0--.... 
  2O 1 0  15  00  00  00  00  00  229  120    0-..... 
  3C 2 0  15  45  00  00  00  00  286  146    0--.... 
  4C 3 0  35  00  00  00  00  00  327  137    0-..... 
23       5                                
  1C 2 0  25  35  00  00  00  00  246  148    0--.... 
  2O 1 0  15  00  00  00  00  00  229  120    0-..... 
  3C 2 0  15  45  00  00  00  00  286  146    0--.... 
  4C 2 0  35  55  00  00  00  00  327  137    0--.... 
  5C 3 0  45  00  00  00  00  00  369  142    0-..... 
24       6                                
  1C 2 0  25  35  00  00  00  00  246  148    0--.... 
  2O 1 0  15  00  00  00  00  00  229  120    0-..... 
  3C 2 0  15  45  00  00  00  00  286  146    0--.... 
  4C 2 0  35  55  00  00  00  00  327  137    0--.... 
  5C 2 0  45  65  00  00  00  00  369  142    0--.... 
  6C 3 0  55  00  00  00  00  00  414  132    0-..... 
25       7                                
  1C 3 0  25  00  00  00  00  00  105  139    0-..... 
  2C 2 0  15  35  00  00  00  00  131  124    0--.... 
  3C 2 0  25  45  00  00  00  00  157  139    0--.... 
  4C 2 0  35  55  00  00  00  00  183  124    0--.... 
  5C 2 0  45  65  00  00  00  00  209  139    0--.... 
  6C 2 0  55  75  00  00  00  00  235  124    0--.... 
  7O 1 0  65  00  00  00  00  00  235   94    0-..... 
26       8                                
  1C 2 0  25  85  00  00  00  00  105  139    0--.... 
  2C 2 0  15  35  00  00  00  00  131  124    0--.... 
  3C 2 0  25  45  00  00  00  00  157  139    0--.... 
  4C 2 0  35  55  00  00  00  00  183  124    0--.... 
  5C 2 0  45  65  00  00  00  00  209  139    0--.... 
  6C 2 0  55  75  00  00  00  00  235  124    0--.... 
  7O 1 0  65  00  00  00  00  00  235   94    0-..... 
  8C 3 0  15  00  00  00  00  00   79  124    0-..... 
27       9                                
  1C 2 0  25  85  00  00  00  00  105  139    0--.... 
  2C 2 0  15  35  00  00  00  00  131  124    0--.... 
  3C 2 0  25  45  00  00  00  00  157  139    0--.... 
  4C 2 0  35  55  00  00  00  00  183  124    0--.... 
  5C 2 0  45  65  00  00  00  00  209  139    0--.... 
  6C 2 0  55  75  00  00  00  00  235  124    0--.... 
  7O 1 0  65  00  00  00  00  00  235   94    0-..... 
  8C 2 0  15  95  00  00  00  00   79  124    0--.... 
  9C 3 0  85  00  00  00  00  00   53  139    0-..... 
28      10                                
  1C 2 0  25  85  00  00  00  00  105  139    0--.... 
  2C 2 0  15  35  00  00  00  00  131  124    0--.... 
  3C 2 0  25  45  00  00  00  00  157  139    0--.... 
  4C 2 0  35  55  00  00  00  00  183  124    0--.... 
  5C 2 0  45  65  00  00  00  00  209  139    0--.... 
  6C 2 0  55  75  00  00  00  00  235  124    0--.... 
  7O 1 0  65  00  00  00  00  00  235   94    0-..... 
  8C 2 0  15  95  00  00  00  00   79  124    0--.... 
  9C 2 0  85 105  00  00  00  00   53  139    0--.... 
 10C 3 0  95  00  00  00  00  00   27  124    0-..... 
29      11                                
  1C 2 0  25  85  00  00  00  00  105  139    0--.... 
  2C 2 0  15  35  00  00  00  00  131  124    0--.... 
  3C 2 0  25  45  00  00  00  00  157  139    0--.... 
  4C 2 0  35  55  00  00  00  00  183  124    0--.... 
  5C 2 0  45  65  00  00  00  00  209  139    0--.... 
  6C 2 0  55  75  00  00  00  00  235  124    0--.... 
  7O 1 0  65  00  00  00  00  00  235   94    0-..... 
  8C 2 0  15  95  00  00  00  00   79  124    0--.... 
  9C 2 0  85 105  00  00  00  00   53  139    0--.... 
 10C 2 0  95 115  00  00  00  00   27  124    0--.... 
 11C 3 0 105  00  00  00  00  00   27  154    0-..... 
30       5                                
  1C 2 0  25  45  00  00  00  00  111  167    0--.... 
  2C 1 0  15  35  55  00  00  00  137  152    0---... 
  3C 3 0  25  00  00  00  00  00  163  167    0-..... 
  4O 1 0  15  00  00  00  00  00  111  197    0-..... 
  5O 1 0  25  00  00  00  00  00  137  122    0-..... 
31       9                                
  1C 1 0  22  61  00  00  00  00  173  134    0--.... 
  2C 0 0  12  31  75  00  00  00  188  160    0---... 
  3C 1 0  21  42  00  00  00  00  218  160    0--.... 
  4C 1 0  32  51  00  00  00  00  233  134    0--.... 
  5C 1 0  41  62  00  00  00  00  218  108    0--.... 
  6C 1 0  52  11  00  00  00  00  188  108    0--.... 
  7C 1 0  25  85  95  00  00  00  188  190    0---... 
  8C 3 0  75  00  00  00  00  00  214  205    0-..... 
  9O 1 0  75  00  00  00  00  00  158  190    0-..... 
32      14                                
  1C 1 0  22  61  00  00  00  00  295  207    0--.... 
  2C 1 0  12  31  00  00  00  00  310  233    0--.... 
  3C 1 0  21  42  00  00  00  00  340  233    0--.... 
  4C 1 0  32  51  00  00  00  00  355  207    0--.... 
  5C 1 0  41  62  00  00  00  00  340  181    0--.... 
  6C 0 0  52  11  75  00  00  00  310  181    0---... 
  7C 1 0  65 115 145  00  00  00  284  166    0---... 
  8C 1 0  92 131  00  00  00  00  168  154    0--.... 
  9C 1 0  82 101  00  00  00  00  183  180    0--.... 
 10C 1 0  91 112  00  00  00  00  213  180    0--.... 
 11C 0 0 102 121  75  00  00  00  228  154    0---... 
 12C 1 0 111 132  00  00  00  00  213  128    0--.... 
 13C 1 0 122  81  00  00  00  00  183  128    0--.... 
 14O 1 0  75  00  00  00  00  00  299  140    0-..... 
33      16                                
  1C 0 0  22  61  75  00  00  00  248  186    0---... 
  2C 1 0  12  31  00  00  00  00  263  212    0--.... 
  3C 0 0  21  42  85  00  00  00  293  212    0---... 
  4C 1 0  32  51  00  00  00  00  308  186    0--.... 
  5C 0 0  41  62  95  00  00  00  293  160    0---... 
  6C 1 0  52  11  00  00  00  00  263  160    0--.... 
  7CL0 0  15  00  00  00  00  00  215  189    0-..... 
  8CL0 0  35  00  00  00  00  00  308  238    0-..... 
  9C 0 0  55 106 115  00  00  00  308  134    0---... 
 10O 0 0  96  00  00  00  00  00  282  119    0-..... 
 11N 1 0  95 125  00  00  00  00  338  134    0--.... 
 12C 0 0 115 135 145 165  00  00  353  108    0----.. 
 13C 3 0 125  00  00  00  00  00  327   93    0-..... 
 14C 0 0 125 157  00  00  00  00  379  123    0--.... 
 15C 1 0 147  00  00  00  00  00  409  123    0-..... 
 16C 3 0 125  00  00  00  00  00  368   82    0-..... 
34      14                                
  1C 1 0  22  61  00  00  00  00  185  222    0--.... 
  2C 1 0  12  31  00  00  00  00  200  248    0--.... 
  3C 1 0  21  42  00  00  00  00  230  248    0--.... 
  4C 1 0  32  51  00  00  00  00  245  222    0--.... 
  5C 0 0  41  62  75  00  00  00  230  196    0---... 
  6C 1 0  52  11  00  00  00  00  200  196    0--.... 
  7C 0 0  55  85  96  00  00  00  245  170    0---... 
  8N 1 0  75 105  00  00  00  00  271  155    0--.... 
  9O 0 0  76  00  00  00  00  00  219  155    0-..... 
 10C 1 0  85 115 125  00  00  00  301  155    0---... 
 11C 1 0 105 135 145  00  00  00  301  125    0---... 
 12C 3 0 105  00  00  00  00  00  301  185    0-..... 
 13C 3 0 115  00  00  00  00  00  271  125    0-..... 
 14C 3 0 115  00  00  00  00  00  331  125    0-..... 
35      14                                
  1C 1 0  22  61  00  00  00  00  272  198    0--.... 
  2C 0 0  12  31  75  00  00  00  257  172    0---... 
  3C 1 0  21  42  00  00  00  00  227  172    0--.... 
  4C 1 0  32  51  00  00  00  00  212  198    0--.... 
  5C 1 0  41  62  00  00  00  00  227  224    0--.... 
  6C 1 0  52  11  00  00  00  00  257  224    0--.... 
  7C 0 0  25  85 146  00  00  00  272  146    0---... 
  8N 1 0  75  95  00  00  00  00  298  131    0--.... 
  9C 1 0 105  85 115  00  00  00  323  121    0---... 
 10C 1 0  95 125 135  00  00  00  308   95    0---... 
 11C 3 0  95  00  00  00  00  00  338  147    0-..... 
 12C 3 0 105  00  00  00  00  00  278   95    0-..... 
 13C 3 0 105  00  00  00  00  00  334   80    0-..... 
 14O 0 0  76  00  00  00  00  00  246  131    0-..... 
36      16                                
  1C 1 0  22  61  00  00  00  00  272  198    0--.... 
  2C 0 0  12  31  75  00  00  00  257  172    0---... 
  3C 1 0  21  42  00  00  00  00  227  172    0--.... 
  4C 1 0  32  51  00  00  00  00  212  198    0--.... 
  5C 0 0  41  62 155  00  00  00  227  224    0---... 
  6C 1 0  52  11  00  00  00  00  257  224    0--.... 
  7C 0 0  25  85 146  00  00  00  272  146    0---... 
  8N 1 0  75  95  00  00  00  00  298  131    0--.... 
  9C 1 0 105  85 115  00  00  00  323  121    0---... 
 10C 1 0  95 125 135  00  00  00  308   95    0---... 
 11C 3 0  95  00  00  00  00  00  338  147    0-..... 
 12C 3 0 105  00  00  00  00  00  278   95    0-..... 
 13C 3 0 105  00  00  00  00  00  334   80    0-..... 
 14O 0 0  76  00  00  00  00  00  246  131    0-..... 
 15O 0 0  55 165  00  00  00  00  212  250    0--.... 
 16C 3 0 155  00  00  00  00  00  182  250    0-..... 
37      15                                
  1C 0 0  25  86 145  00  00  00  303  188    0---... 
  2N 1 0  15  35  00  00  00  00  329  173    0--.... 
  3C 1 0  25  45  55  00  00  00  359  173    0---... 
  4C 1 0  35  65  75  00  00  00  359  143    0---... 
  5C 3 0  35  00  00  00  00  00  359  203    0-..... 
  6C 3 0  45  00  00  00  00  00  329  143    0-..... 
  7C 3 0  45  00  00  00  00  00  389  143    0-..... 
  8O 0 0  16  00  00  00  00  00  277  173    0-..... 
  9C 1 0 102 141  00  00  00  00  280  244    0--.... 
 10C 1 0  92 111  00  00  00  00  295  270    0--.... 
 11C 0 0 101 122 155  00  00  00  325  270    0---... 
 12C 1 0 112 131  00  00  00  00  340  244    0--.... 
 13C 1 0 121 142  00  00  00  00  325  218    0--.... 
 14C 0 0 132  91  15  00  00  00  295  218    0---... 
 15C 3 0 115  00  00  00  00  00  340  296    0-..... 
38      15                                
  1C 0 0  25  86 145  00  00  00  303  188    0---... 
  2N 1 0  15  35  00  00  00  00  329  173    0--.... 
  3C 1 0  25  45  55  00  00  00  359  173    0---... 
  4C 1 0  35  65  75  00  00  00  359  143    0---... 
  5C 3 0  35  00  00  00  00  00  359  203    0-..... 
  6C 3 0  45  00  00  00  00  00  329  143    0-..... 
  7C 3 0  45  00  00  00  00  00  389  143    0-..... 
  8O 0 0  16  00  00  00  00  00  277  173    0-..... 
  9C 1 0 102 141  00  00  00  00  280  244    0--.... 
 10C 1 0  92 111  00  00  00  00  295  270    0--.... 
 11C 0 0 101 122 155  00  00  00  325  270    0---... 
 12C 1 0 112 131  00  00  00  00  340  244    0--.... 
 13C 1 0 121 142  00  00  00  00  325  218    0--.... 
 14C 0 0 132  91  15  00  00  00  295  218    0---... 
 15BR0 0 115  00  00  00  00  00  340  296    0-..... 
39      15                                
  1C 0 0  25  86 145  00  00  00  303  188    0---... 
  2N 1 0  15  35  00  00  00  00  329  173    0--.... 
  3C 1 0  25  45  55  00  00  00  359  173    0---... 
  4C 1 0  35  65  75  00  00  00  359  143    0---... 
  5C 3 0  35  00  00  00  00  00  359  203    0-..... 
  6C 3 0  45  00  00  00  00  00  329  143    0-..... 
  7C 3 0  45  00  00  00  00  00  389  143    0-..... 
  8O 0 0  16  00  00  00  00  00  277  173    0-..... 
  9C 1 0 102 141  00  00  00  00  280  244    0--.... 
 10C 1 0  92 111  00  00  00  00  295  270    0--.... 
 11C 0 0 101 122 155  00  00  00  325  270    0---... 
 12C 1 0 112 131  00  00  00  00  340  244    0--.... 
 13C 1 0 121 142  00  00  00  00  325  218    0--.... 
 14C 0 0 132  91  15  00  00  00  295  218    0---... 
 15F 0 0 115  00  00  00  00  00  340  296    0-..... 
40      17                                
  1C 0 0  25  86 145  00  00  00  303  188    0---... 
  2N 1 0  15  35  00  00  00  00  329  173    0--.... 
  3C 1 0  25  45  55  00  00  00  359  173    0---... 
  4C 1 0  35  65  75  00  00  00  359  143    0---... 
  5C 3 0  35  00  00  00  00  00  359  203    0-..... 
  6C 3 0  45  00  00  00  00  00  329  143    0-..... 
  7C 3 0  45  00  00  00  00  00  389  143    0-..... 
  8O 0 0  16  00  00  00  00  00  277  173    0-..... 
  9C 1 0 102 141  00  00  00  00  280  244    0--.... 
 10C 1 0  92 111  00  00  00  00  295  270    0--.... 
 11C 0 0 101 122 155  00  00  00  325  270    0---... 
 12C 1 0 112 131  00  00  00  00  340  244    0--.... 
 13C 1 0 121 142  00  00  00  00  325  218    0--.... 
 14C 0 0 132  91  15  00  00  00  295  218    0---... 
 15C 1 0 115 165 175  00  00  00  340  296    0---... 
 16C 3 0 155  00  00  00  00  00  340  326    0-..... 
 17C 3 0 155  00  00  00  00  00  370  296    0-..... 
41      24                                
  1C 0 0  25  46 105  00  00  00  303  188    0---... 
  2N 1 0  15  35  00  00  00  00  329  173    0--.... 
  3C 0 0  25 152 161  00  00  00  359  173    0---... 
  4O 0 0  16  00  00  00  00  00  277  173    0-..... 
  5C 0 0  62 101 115  00  00  00  280  244    0---... 
  6C 1 0  52  71  00  00  00  00  295  270    0--.... 
  7C 1 0  61  82  00  00  00  00  325  270    0--.... 
  8C 1 0  72  91  00  00  00  00  340  244    0--.... 
  9C 0 0  81 102 135  00  00  00  325  218    0---... 
 10C 0 0  92  51  15  00  00  00  295  218    0---... 
 11O 0 0  55 125  00  00  00  00  250  244    0--.... 
 12C 3 0 115  00  00  00  00  00  224  229    0-..... 
 13O 0 0  95 145  00  00  00  00  351  203    0--.... 
 14C 3 0 135  00  00  00  00  00  381  203    0-..... 
 15C 1 0  32 171  00  00  00  00  359  143    0--.... 
 16O 0 0  31 181  00  00  00  00  389  173    0--.... 
 17C 0 0 151 182 195  00  00  00  374  117    0---... 
 18N 0 0 161 172  00  00  00  00  404  147    0--.... 
 19C 0 0 175 205 225 235  00  00  359   91    0----.. 
 20C 2 0 195 215  00  00  00  00  329   91    0--.... 
 21C 3 0 205  00  00  00  00  00  314  117    0-..... 
 22C 3 0 195  00  00  00  00  00  344   65    0-..... 
 23C 2 0 195 245  00  00  00  00  385   76    0--.... 
 24C 3 0 235  00  00  00  00  00  415   76    0-..... 
42       9                                
  1C 0 0  25  36  95  00  00  00  303  188    0---... 
  2N 2 0  15  00  00  00  00  00  329  173    0-..... 
  3O 0 0  16  00  00  00  00  00  277  173    0-..... 
  4C 1 0  52  91  00  00  00  00  280  244    0--.... 
  5C 1 0  42  61  00  00  00  00  295  270    0--.... 
  6C 1 0  51  72  00  00  00  00  325  270    0--.... 
  7C 1 0  62  81  00  00  00  00  340  244    0--.... 
  8C 1 0  71  92  00  00  00  00  325  218    0--.... 
  9C 0 0  82  41  15  00  00  00  295  218    0---... 
43      12                                
  1C 0 0  25  36  95  00  00  00  303  188    0---... 
  2N 2 0  15  00  00  00  00  00  329  173    0-..... 
  3O 0 0  16  00  00  00  00  00  277  173    0-..... 
  4C 0 0  52  91 105  00  00  00  280  244    0---... 
  5C 1 0  42  61  00  00  00  00  295  270    0--.... 
  6C 1 0  51  72  00  00  00  00  325  270    0--.... 
  7C 1 0  62  81  00  00  00  00  340  244    0--.... 
  8C 1 0  71  92  00  00  00  00  325  218    0--.... 
  9C 0 0  82  41  15  00  00  00  295  218    0---... 
 10N 0 0  45 116 126  00  00  00  250  244    0---... 
 11O 0 0 106  00  00  00  00  00  235  270    0-..... 
 12O 0 0 106  00  00  00  00  00  235  218    0-..... 
44      12                                
  1C 0 0  25  36  95  00  00  00  303  188    0---... 
  2N 2 0  15  00  00  00  00  00  329  173    0-..... 
  3O 0 0  16  00  00  00  00  00  277  173    0-..... 
  4C 1 0  52  91  00  00  00  00  280  244    0--.... 
  5C 0 0  42  61 105  00  00  00  295  270    0---... 
  6C 1 0  51  72  00  00  00  00  325  270    0--.... 
  7C 1 0  62  81  00  00  00  00  340  244    0--.... 
  8C 1 0  71  92  00  00  00  00  325  218    0--.... 
  9C 0 0  82  41  15  00  00  00  295  218    0---... 
 10N 0 0  55 116 126  00  00  00  280  296    0---... 
 11O 0 0 106  00  00  00  00  00  295  322    0-..... 
 12O 0 0 106  00  00  00  00  00  249  296    0-..... 
45      10                                
  1C 0 0  25  36  95  00  00  00  303  188    0---... 
  2N 2 0  15  00  00  00  00  00  329  173    0-..... 
  3O 0 0  16  00  00  00  00  00  277  173    0-..... 
  4C 1 0  52  91  00  00  00  00  280  244    0--.... 
  5C 1 0  42  61  00  00  00  00  295  270    0--.... 
  6C 0 0  51  72 105  00  00  00  325  270    0---... 
  7C 1 0  62  81  00  00  00  00  340  244    0--.... 
  8C 1 0  71  92  00  00  00  00  325  218    0--.... 
  9C 0 0  82  41  15  00  00  00  295  218    0---... 
 10C 3 0  65  00  00  00  00  00  340  296    0-..... 
46      12                                
  1C 0 0  25  36  95  00  00  00  303  188    0---... 
  2N 2 0  15  00  00  00  00  00  329  173    0-..... 
  3O 0 0  16  00  00  00  00  00  277  173    0-..... 
  4C 1 0  52  91  00  00  00  00  280  244    0--.... 
  5C 1 0  42  61  00  00  00  00  295  270    0--.... 
  6C 0 0  51  72 105  00  00  00  325  270    0---... 
  7C 1 0  62  81  00  00  00  00  340  244    0--.... 
  8C 1 0  71  92  00  00  00  00  325  218    0--.... 
  9C 0 0  82  41  15  00  00  00  295  218    0---... 
 10N 0 0  65 116 126  00  00  00  340  296    0---... 
 11O 0 0 106  00  00  00  00  00  370  296    0-..... 
 12O 0 0 106  00  00  00  00  00  326  322    0-..... 
47      10                                
  1C 0 0  25  36  95  00  00  00  303  188    0---... 
  2N 2 0  15  00  00  00  00  00  329  173    0-..... 
  3O 0 0  16  00  00  00  00  00  277  173    0-..... 
  4C 0 0  52  91 105  00  00  00  280  244    0---... 
  5C 1 0  42  61  00  00  00  00  295  270    0--.... 
  6C 1 0  51  72  00  00  00  00  325  270    0--.... 
  7C 1 0  62  81  00  00  00  00  340  244    0--.... 
  8C 1 0  71  92  00  00  00  00  325  218    0--.... 
  9C 0 0  82  41  15  00  00  00  295  218    0---... 
 10CL0 0  45  00  00  00  00  00  250  244    0-..... 
48      11                                
  1C 0 0  25  36  95  00  00  00  303  188    0---... 
  2N 2 0  15  00  00  00  00  00  329  173    0-..... 
  3O 0 0  16  00  00  00  00  00  277  173    0-..... 
  4C 0 0  52  91 105  00  00  00  280  244    0---... 
  5C 1 0  42  61  00  00  00  00  295  270    0--.... 
  6C 1 0  51  72  00  00  00  00  325  270    0--.... 
  7C 1 0  62  81  00  00  00  00  340  244    0--.... 
  8C 0 0  71  92 115  00  00  00  325  218    0---... 
  9C 0 0  82  41  15  00  00  00  295  218    0---... 
 10CL0 0  45  00  00  00  00  00  250  244    0-..... 
 11CL0 0  85  00  00  00  00  00  340  192    0-..... 
49      15                                
  1C 0 0  22  61 105  00  00  00  230  222    0---... 
  2C 1 0  12  31  00  00  00  00  245  248    0--.... 
  3C 0 0  21  42 135  00  00  00  275  248    0---... 
  4C 1 0  32  51  00  00  00  00  290  222    0--.... 
  5C 0 0  41  62  75  00  00  00  275  196    0---... 
  6C 1 0  52  11  00  00  00  00  245  196    0--.... 
  7C 0 0  55  85  96  00  00  00  290  170    0---... 
  8N 2 0  75  00  00  00  00  00  316  155    0-..... 
  9O 0 0  76  00  00  00  00  00  264  155    0-..... 
 10N 0 0  15 116 126  00  00  00  200  222    0---... 
 11O 0 0 106  00  00  00  00  00  185  248    0-..... 
 12O 0 0 106  00  00  00  00  00  185  196    0-..... 
 13N 0 0  35 146 156  00  00  00  290  274    0---... 
 14O 0 0 136  00  00  00  00  00  320  274    0-..... 
 15O 0 0 136  00  00  00  00  00  276  300    0-..... 
50      10                                
  1C 1 0  22  61  00  00  00  00  230  222    0--.... 
  2C 1 0  12  31  00  00  00  00  245  248    0--.... 
  3C 1 0  21  42  00  00  00  00  275  248    0--.... 
  4C 1 0  32  51  00  00  00  00  290  222    0--.... 
  5C 0 0  41  62  75  00  00  00  275  196    0---... 
  6C 1 0  52  11  00  00  00  00  245  196    0--.... 
  7C 0 0  55  85  96  00  00  00  290  170    0---... 
  8N 1 0  75 105  00  00  00  00  316  155    0--.... 
  9O 0 0  76  00  00  00  00  00  264  155    0-..... 
 10C 3 0  85  00  00  00  00  00  331  129    0-..... 
51       7                                
  1C 0 0  25  55  65  75  00  00  129  157    0----.. 
  2C 0 0  15  35  46  00  00  00  159  157    0---... 
  3N 2 0  25  00  00  00  00  00  185  172    0-..... 
  4O 0 0  26  00  00  00  00  00  159  127    0-..... 
  5CL0 0  15  00  00  00  00  00  129  127    0-..... 
  6CL0 0  15  00  00  00  00  00   99  157    0-..... 
  7CL0 0  15  00  00  00  00  00  129  187    0-..... 
52       8                                
  1C 1 0  25  55  75  00  00  00  129  157    0---... 
  2C 0 0  15  35  46  00  00  00  159  157    0---... 
  3N 2 0  25  00  00  00  00  00  185  172    0-..... 
  4O 0 0  26  00  00  00  00  00  159  127    0-..... 
  5C 2 0  15  65  00  00  00  00  129  127    0--.... 
  6C 3 0  55  00  00  00  00  00  103  112    0-..... 
  7C 2 0  15  85  00  00  00  00  129  187    0--.... 
  8C 3 0  75  00  00  00  00  00  114  213    0-..... 
53      19                                
  1C 0 0  22  61  75  00  00  00  165   93    0---... 
  2C 1 0  12  31  00  00  00  00  180  119    0--.... 
  3C 0 0  21  42 115  00  00  00  210  119    0---... 
  4C 1 0  32  51  00  00  00  00  225   93    0--.... 
  5C 1 0  41  62  00  00  00  00  210   67    0--.... 
  6C 1 0  52  11  00  00  00  00  180   67    0--.... 
  7C 0 0  15  85  95 105  00  00  139   78    0----.. 
  8F 0 0  75  00  00  00  00  00  154   52    0-..... 
  9F 0 0  75  00  00  00  00  00  113   63    0-..... 
 10F 0 0  75  00  00  00  00  00  124  104    0-..... 
 11N 0 0  35 121 151  00  00  00  210  149    0---... 
 12C 0 0 111 131 166  00  00  00  184  164    0---... 
 13C 1 0 121 141 175  00  00  00  199  190    0---... 
 14C 1 0 131 151 185  00  00  00  229  190    0---... 
 15C 2 0 141 111  00  00  00  00  244  164    0--.... 
 16O 0 0 126  00  00  00  00  00  158  149    0-..... 
 17CL0 0 135  00  00  00  00  00  184  216    0-..... 
 18C 2 0 145 195  00  00  00  00  244  216    0--.... 
 19CL0 0 185  00  00  00  00  00  270  201    0-..... 
54      16                                
  1C 1 0  22  61  00  00  00  00  129  166    0--.... 
  2C 1 0  12  31  00  00  00  00  144  192    0--.... 
  3C 1 0  21  42  00  00  00  00  174  192    0--.... 
  4C 0 0  32  51  81  00  00  00  189  166    0---... 
  5C 0 0  41  62  71  00  00  00  174  140    0---... 
  6C 1 0  52  11  00  00  00  00  144  140    0--.... 
  7C 0 0  51  96 101  00  00  00  200  125    0---... 
  8N 1 0  41 111  00  00  00  00  219  166    0--.... 
  9O 0 0  76  00  00  00  00  00  185   99    0-..... 
 10N 0 0  71 111 125  00  00  00  230  125    0---... 
 11S 1 0  81 101 156 166  00  00  245  151    0----.. 
 12C 1 0 105 135 145  00  00  00  256  110    0---... 
 13C 3 0 125  00  00  00  00  00  256   80    0-..... 
 14C 3 0 125  00  00  00  00  00  282  125    0-..... 
 15O 0 0 116  00  00  00  00  00  260  177    0-..... 
 16O 0 0 116  00  00  00  00  00  275  151    0-..... 
55      16                                
  1C 1 0  22  61  00  00  00  00  129  166    0--.... 
  2C 1 0  12  31  00  00  00  00  144  192    0--.... 
  3C 1 0  21  42  00  00  00  00  174  192    0--.... 
  4C 0 0  32  51  81  00  00  00  189  166    0---... 
  5C 0 0  41  62  71  00  00  00  174  140    0---... 
  6C 1 0  52  11  00  00  00  00  144  140    0--.... 
  7C 0 0  51  96 101  00  00  00  200  125    0---... 
  8C 0 0  41 116 101  00  00  00  219  166    0---... 
  9O 0 0  76  00  00  00  00  00  185   99    0-..... 
 10N 0 0  71 125  81  00  00  00  230  125    0---... 
 11O 0 0  86  00  00  00  00  00  234  192    0-..... 
 12S 0 0 105 135  00  00  00  00  256  110    0--.... 
 13C 0 0 125 145 155 165  00  00  282   95    0----.. 
 14CL0 0 135  00  00  00  00  00  256   80    0-..... 
 15CL0 0 135  00  00  00  00  00  308   80    0-..... 
 16CL0 0 135  00  00  00  00  00  297  121    0-..... 
56      16                                
  1C 1 0  22  61  00  00  00  00  129  166    0--.... 
  2C 1 0  12  31  00  00  00  00  144  192    0--.... 
  3C 1 0  21  42  00  00  00  00  174  192    0--.... 
  4C 0 0  32  51  81  00  00  00  189  166    0---... 
  5C 0 0  41  62  71  00  00  00  174  140    0---... 
  6C 1 0  52  11  00  00  00  00  144  140    0--.... 
  7C 0 0  51  96 101  00  00  00  200  125    0---... 
  8C 0 0  41 116 101  00  00  00  219  166    0---... 
  9O 0 0  76  00  00  00  00  00  185   99    0-..... 
 10N 0 0  71 125  81  00  00  00  230  125    0---... 
 11O 0 0  86  00  00  00  00  00  234  192    0-..... 
 12S 0 0 105 135  00  00  00  00  256  110    0--.... 
 13C 0 0 125 145 155 165  00  00  282   95    0----.. 
 14CL0 0 135  00  00  00  00  00  256   80    0-..... 
 15CL0 0 135  00  00  00  00  00  308   80    0-..... 
 16CL0 0 135  00  00  00  00  00  297  121    0-..... 
57      15                                
  1C 1 0  22  61  00  00  00  00  129  166    0--.... 
  2C 1 0  12  31  00  00  00  00  144  192    0--.... 
  3C 1 0  21  42  00  00  00  00  174  192    0--.... 
  4C 1 0  32  51  00  00  00  00  189  166    0--.... 
  5C 0 0  41  62  75  00  00  00  174  140    0---... 
  6C 1 0  52  11  00  00  00  00  144  140    0--.... 
  7N 0 0  55  81 101  00  00  00  189  114    0---... 
  8N 0 0  71  92  00  00  00  00  174   88    0--.... 
  9C 1 0  82 121  00  00  00  00  189   62    0--.... 
 10C 0 0  71 111 136  00  00  00  219  114    0---... 
 11C 0 0 101 122 145  00  00  00  234   88    0---... 
 12C 0 0  91 112 155  00  00  00  219   62    0---... 
 13O 0 0 106  00  00  00  00  00  219  144    0-..... 
 14CL0 0 115  00  00  00  00  00  260  103    0-..... 
 15N 2 0 125  00  00  00  00  00  234   36    0-..... 
58      17                                
  1C 1 0  22  61  00  00  00  00  121  212    0--.... 
  2C 1 0  12  31  00  00  00  00  121  182    0--.... 
  3C 2 0  21  41  00  00  00  00  147  167    0--.... 
  4C 1 0  31  51  71  00  00  00  173  182    0---... 
  5C 1 0  41  61  91  00  00  00  173  212    0---... 
  6C 2 0  51  11  00  00  00  00  147  227    0--.... 
  7C 0 0  41  81 116  00  00  00  199  167    0---... 
  8N 0 0  71  91 125  00  00  00  225  182    0---... 
  9C 0 0  81  51 106  00  00  00  225  212    0---... 
 10O 0 0  96  00  00  00  00  00  240  238    0-..... 
 11O 0 0  76  00  00  00  00  00  199  137    0-..... 
 12S 0 0  85 135  00  00  00  00  251  167    0--.... 
 13C 0 0 125 145 155 165  00  00  277  182    0----.. 
 14CL0 0 135  00  00  00  00  00  277  152    0-..... 
 15CL0 0 135  00  00  00  00  00  277  212    0-..... 
 16C 2 0 135 175  00  00  00  00  303  167    0--.... 
 17CL0 0 165  00  00  00  00  00  303  137    0-..... 
59       7                                
  1C 1 0  22  61  00  00  00  00  129  166    0--.... 
  2C 1 0  12  31  00  00  00  00  144  192    0--.... 
  3C 1 0  21  42  00  00  00  00  174  192    0--.... 
  4C 1 0  32  51  00  00  00  00  189  166    0--.... 
  5C 0 0  41  62  75  00  00  00  174  140    0---... 
  6C 1 0  52  11  00  00  00  00  144  140    0--.... 
  7N 2 0  55  00  00  00  00  00  189  114    0-..... 
60       8                                
  1C 1 0  22  61  00  00  00  00  129  166    0--.... 
  2C 1 0  12  31  00  00  00  00  144  192    0--.... 
  3C 0 0  21  42  85  00  00  00  174  192    0---... 
  4C 1 0  32  51  00  00  00  00  189  166    0--.... 
  5C 0 0  41  62  75  00  00  00  174  140    0---... 
  6C 1 0  52  11  00  00  00  00  144  140    0--.... 
  7N 2 0  55  00  00  00  00  00  189  114    0-..... 
  8C 3 0  35  00  00  00  00  00  189  218    0-..... 
61       8                                
  1C 1 0  22  61  00  00  00  00  129  166    0--.... 
  2C 0 0  12  31  85  00  00  00  144  192    0---... 
  3C 1 0  21  42  00  00  00  00  174  192    0--.... 
  4C 1 0  32  51  00  00  00  00  189  166    0--.... 
  5C 0 0  41  62  75  00  00  00  174  140    0---... 
  6C 1 0  52  11  00  00  00  00  144  140    0--.... 
  7N 2 0  55  00  00  00  00  00  189  114    0-..... 
  8C 3 0  25  00  00  00  00  00  129  218    0-..... 
62       8                                
  1C 1 0  22  61  00  00  00  00  129  166    0--.... 
  2C 0 0  12  31  85  00  00  00  144  192    0---... 
  3C 1 0  21  42  00  00  00  00  174  192    0--.... 
  4C 1 0  32  51  00  00  00  00  189  166    0--.... 
  5C 0 0  41  62  75  00  00  00  174  140    0---... 
  6C 1 0  52  11  00  00  00  00  144  140    0--.... 
  7N 2 0  55  00  00  00  00  00  189  114    0-..... 
  8CL0 0  25  00  00  00  00  00  129  218    0-..... 
63       8                                
  1C 1 0  22  61  00  00  00  00  129  166    0--.... 
  2C 0 0  12  31  85  00  00  00  144  192    0---... 
  3C 1 0  21  42  00  00  00  00  174  192    0--.... 
  4C 1 0  32  51  00  00  00  00  189  166    0--.... 
  5C 0 0  41  62  75  00  00  00  174  140    0---... 
  6C 1 0  52  11  00  00  00  00  144  140    0--.... 
  7N 2 0  55  00  00  00  00  00  189  114    0-..... 
  8BR0 0  25  00  00  00  00  00  129  218    0-..... 
64      11                                
  1C 1 0  22  61  00  00  00  00  129  166    0--.... 
  2C 1 0  12  31  00  00  00  00  144  192    0--.... 
  3C 0 0  21  42  85  00  00  00  174  192    0---... 
  4C 1 0  32  51  00  00  00  00  189  166    0--.... 
  5C 0 0  41  62  75  00  00  00  174  140    0---... 
  6C 1 0  52  11  00  00  00  00  144  140    0--.... 
  7N 2 0  55  00  00  00  00  00  189  114    0-..... 
  8C 0 0  35  95 105 115  00  00  189  218    0----.. 
  9F 0 0  85  00  00  00  00  00  215  203    0-..... 
 10F 0 0  85  00  00  00  00  00  204  244    0-..... 
 11F 0 0  85  00  00  00  00  00  163  233    0-..... 
65      10                                
  1C 1 0  22  61  00  00  00  00  129  166    0--.... 
  2C 0 0  12  31  95  00  00  00  144  192    0---... 
  3C 0 0  21  42  85  00  00  00  174  192    0---... 
  4C 1 0  32  51  00  00  00  00  189  166    0--.... 
  5C 0 0  41  62  75  00  00  00  174  140    0---... 
  6C 1 0  52  11  00  00  00  00  144  140    0--.... 
  7N 2 0  55  00  00  00  00  00  189  114    0-..... 
  8CL0 0  35  00  00  00  00  00  200  207    0-..... 
  9O 0 0  25 105  00  00  00  00  129  218    0--.... 
 10C 3 0  95  00  00  00  00  00  129  248    0-..... 
66       9                                
  1C 1 0  22  61  00  00  00  00  198  181    0--.... 
  2C 0 0  12  31  95  00  00  00  213  207    0---... 
  3C 0 0  21  42  85  00  00  00  243  207    0---... 
  4C 1 0  32  51  00  00  00  00  258  181    0--.... 
  5C 0 0  41  62  75  00  00  00  243  155    0---... 
  6C 1 0  52  11  00  00  00  00  213  155    0--.... 
  7N 2 0  55  00  00  00  00  00  258  129    0-..... 
  8C 3 0  35  00  00  00  00  00  258  233    0-..... 
  9BR0 0  25  00  00  00  00  00  198  233    0-..... 
67       9                                
  1C 1 0  22  61  00  00  00  00  198  181    0--.... 
  2C 0 0  12  31  85  00  00  00  213  207    0---... 
  3C 1 0  21  42  00  00  00  00  243  207    0--.... 
  4C 0 0  32  51  95  00  00  00  258  181    0---... 
  5C 0 0  41  62  75  00  00  00  243  155    0---... 
  6C 1 0  52  11  00  00  00  00  213  155    0--.... 
  7N 2 0  55  00  00  00  00  00  258  129    0-..... 
  8CL0 0  25  00  00  00  00  00  198  233    0-..... 
  9CL0 0  45  00  00  00  00  00  288  181    0-..... 
68       9                                
  1C 1 0  22  61  00  00  00  00  198  181    0--.... 
  2C 1 0  12  31  00  00  00  00  213  207    0--.... 
  3C 1 0  21  42  00  00  00  00  243  207    0--.... 
  4C 0 0  32  51  85  00  00  00  258  181    0---... 
  5C 0 0  41  62  75  00  00  00  243  155    0---... 
  6C 0 0  52  11  95  00  00  00  213  155    0---... 
  7N 2 0  55  00  00  00  00  00  258  129    0-..... 
  8CL0 0  45  00  00  00  00  00  288  181    0-..... 
  9CL0 0  65  00  00  00  00  00  198  129    0-..... 
69       9                                
  1C 0 0  22  61  95  00  00  00  198  181    0---... 
  2C 1 0  12  31  00  00  00  00  213  207    0--.... 
  3C 0 0  21  42  85  00  00  00  243  207    0---... 
  4C 1 0  32  51  00  00  00  00  258  181    0--.... 
  5C 0 0  41  62  75  00  00  00  243  155    0---... 
  6C 1 0  52  11  00  00  00  00  213  155    0--.... 
  7N 2 0  55  00  00  00  00  00  258  129    0-..... 
  8CL0 0  35  00  00  00  00  00  258  233    0-..... 
  9CL0 0  15  00  00  00  00  00  168  181    0-..... 
70       9                                
  1C 1 0  22  61  00  00  00  00  198  181    0--.... 
  2C 0 0  12  31  95  00  00  00  213  207    0---... 
  3C 0 0  21  42  85  00  00  00  243  207    0---... 
  4C 1 0  32  51  00  00  00  00  258  181    0--.... 
  5C 0 0  41  62  75  00  00  00  243  155    0---... 
  6C 1 0  52  11  00  00  00  00  213  155    0--.... 
  7N 2 0  55  00  00  00  00  00  258  129    0-..... 
  8CL0 0  35  00  00  00  00  00  258  233    0-..... 
  9CL0 0  25  00  00  00  00  00  198  233    0-..... 
71      10                                
  1C 1 0  22  61  00  00  00  00  198  181    0--.... 
  2C 0 0  12  31  95  00  00  00  213  207    0---... 
  3C 0 0  21  42  85  00  00  00  243  207    0---... 
  4C 0 0  32  51 105  00  00  00  258  181    0---... 
  5C 0 0  41  62  75  00  00  00  243  155    0---... 
  6C 1 0  52  11  00  00  00  00  213  155    0--.... 
  7N 2 0  55  00  00  00  00  00  258  129    0-..... 
  8CL0 0  35  00  00  00  00  00  258  233    0-..... 
  9CL0 0  25  00  00  00  00  00  198  233    0-..... 
 10CL0 0  45  00  00  00  00  00  288  181    0-..... 
72      11                                
  1C 0 0  22  61 115  00  00  00  198  181    0---... 
  2C 0 0  12  31  95  00  00  00  213  207    0---... 
  3C 0 0  21  42  85  00  00  00  243  207    0---... 
  4C 0 0  32  51 105  00  00  00  258  181    0---... 
  5C 0 0  41  62  75  00  00  00  243  155    0---... 
  6C 1 0  52  11  00  00  00  00  213  155    0--.... 
  7N 2 0  55  00  00  00  00  00  258  129    0-..... 
  8CL0 0  35  00  00  00  00  00  258  233    0-..... 
  9CL0 0  25  00  00  00  00  00  198  233    0-..... 
 10CL0 0  45  00  00  00  00  00  288  181    0-..... 
 11CL0 0  15  00  00  00  00  00  168  181    0-..... 
73      11                                
  1C 0 0  22  61 105  00  00  00  198  181    0---... 
  2C 1 0  12  31  00  00  00  00  213  207    0--.... 
  3C 0 0  21  42  85  00  00  00  243  207    0---... 
  4C 0 0  32  51  95  00  00  00  258  181    0---... 
  5C 0 0  41  62  75  00  00  00  243  155    0---... 
  6C 0 0  52  11 115  00  00  00  213  155    0---... 
  7N 2 0  55  00  00  00  00  00  258  129    0-..... 
  8CL0 0  35  00  00  00  00  00  258  233    0-..... 
  9CL0 0  45  00  00  00  00  00  288  181    0-..... 
 10CL0 0  15  00  00  00  00  00  168  181    0-..... 
 11CL0 0  65  00  00  00  00  00  198  129    0-..... 
74      12                                
  1C 0 0  22  61 105  00  00  00  198  181    0---... 
  2C 0 0  12  31 125  00  00  00  213  207    0---... 
  3C 0 0  21  42  85  00  00  00  243  207    0---... 
  4C 0 0  32  51  95  00  00  00  258  181    0---... 
  5C 0 0  41  62  75  00  00  00  243  155    0---... 
  6C 0 0  52  11 115  00  00  00  213  155    0---... 
  7N 2 0  55  00  00  00  00  00  258  129    0-..... 
  8CL0 0  35  00  00  00  00  00  258  233    0-..... 
  9CL0 0  45  00  00  00  00  00  288  181    0-..... 
 10CL0 0  15  00  00  00  00  00  168  181    0-..... 
 11CL0 0  65  00  00  00  00  00  198  129    0-..... 
 12CL0 0  25  00  00  00  00  00  198  233    0-..... 
75       8                                
  1C 1 0  22  61  00  00  00  00  198  181    0--.... 
  2C 1 0  12  31  00  00  00  00  213  207    0--.... 
  3C 1 0  21  42  00  00  00  00  243  207    0--.... 
  4C 1 0  32  51  00  00  00  00  258  181    0--.... 
  5C 0 0  41  62  75  00  00  00  243  155    0---... 
  6C 1 0  52  11  00  00  00  00  213  155    0--.... 
  7N 1 0  55  85  00  00  00  00  258  129    0--.... 
  8C 3 0  75  00  00  00  00  00  273  103    0-..... 
76       9                                
  1C 1 0  22  61  00  00  00  00  198  181    0--.... 
  2C 1 0  12  31  00  00  00  00  213  207    0--.... 
  3C 1 0  21  42  00  00  00  00  243  207    0--.... 
  4C 1 0  32  51  00  00  00  00  258  181    0--.... 
  5C 0 0  41  62  75  00  00  00  243  155    0---... 
  6C 1 0  52  11  00  00  00  00  213  155    0--.... 
  7N 0 0  55  85  95  00  00  00  258  129    0---... 
  8C 3 0  75  00  00  00  00  00  273  103    0-..... 
  9C 3 0  75  00  00  00  00  00  232  114    0-..... 
77      13                                
  1C 1 0  22  61  00  00  00  00  198  181    0--.... 
  2C 1 0  12  31  00  00  00  00  213  207    0--.... 
  3C 1 0  21  42  00  00  00  00  243  207    0--.... 
  4C 1 0  32  51  00  00  00  00  258  181    0--.... 
  5C 0 0  41  62  75  00  00  00  243  155    0---... 
  6C 1 0  52  11  00  00  00  00  213  155    0--.... 
  7N 1 0  55  95  00  00  00  00  258  129    0--.... 
  8C 1 0  92 131  00  00  00  00  290   81    0--.... 
  9C 0 0  82 101  75  00  00  00  305  107    0---... 
 10C 1 0  91 112  00  00  00  00  335  107    0--.... 
 11C 1 0 102 121  00  00  00  00  350   81    0--.... 
 12C 1 0 111 132  00  00  00  00  335   55    0--.... 
 13C 1 0 122  81  00  00  00  00  305   55    0--.... 
78      14                                
  1C 1 0  22  61  00  00  00  00  198  181    0--.... 
  2C 1 0  12  31  00  00  00  00  213  207    0--.... 
  3C 1 0  21  42  00  00  00  00  243  207    0--.... 
  4C 1 0  32  51  00  00  00  00  258  181    0--.... 
  5C 0 0  41  62  75  00  00  00  243  155    0---... 
  6C 1 0  52  11  00  00  00  00  213  155    0--.... 
  7N 0 0  55 146  00  00  00  00  258  129    0--.... 
  8C 0 0  92 131 145  00  00  00  290   81    0---... 
  9C 1 0  82 101  00  00  00  00  305  107    0--.... 
 10C 1 0  91 112  00  00  00  00  335  107    0--.... 
 11C 1 0 102 121  00  00  00  00  350   81    0--.... 
 12C 1 0 111 132  00  00  00  00  335   55    0--.... 
 13C 1 0 122  81  00  00  00  00  305   55    0--.... 
 14N 0 0  76  85  00  00  00  00  243  103    0--.... 
79      15                                
  1C 1 0  22  61  00  00  00  00  198  181    0--.... 
  2C 1 0  12  31  00  00  00  00  213  207    0--.... 
  3C 0 0  21  42  91  00  00  00  243  207    0---... 
  4C 0 0  32  51  71  00  00  00  258  181    0---... 
  5C 1 0  41  62  00  00  00  00  243  155    0--.... 
  6C 1 0  52  11  00  00  00  00  213  155    0--.... 
  7C 0 0  41  82 115  00  00  00  284  166    0---... 
  8C 1 0  72 101  00  00  00  00  299  192    0--.... 
  9C 1 0  31 102  00  00  00  00  258  233    0--.... 
 10C 1 0  92  81  00  00  00  00  288  233    0--.... 
 11O 0 0  75 125  00  00  00  00  299  140    0--.... 
 12C 0 0 115 136 145  00  00  00  325  155    0---... 
 13O 0 0 126  00  00  00  00  00  340  129    0-..... 
 14N 1 0 125 155  00  00  00  00  351  170    0--.... 
 15C 3 0 145  00  00  00  00  00  377  185    0-..... 
80      14                                
  1C 1 0  22  61  00  00  00  00  198  181    0--.... 
  2C 1 0  12  31  00  00  00  00  213  207    0--.... 
  3C 1 0  21  42  00  00  00  00  243  207    0--.... 
  4C 0 0  32  51  85  00  00  00  258  181    0---... 
  5C 1 0  41  62  00  00  00  00  243  155    0--.... 
  6C 0 0  52  11  75  00  00  00  213  155    0---... 
  7CL0 0  65  00  00  00  00  00  198  129    0-..... 
  8N 1 0  45  95  00  00  00  00  288  181    0--.... 
  9C 0 0  85 106 115  00  00  00  318  181    0---... 
 10O 0 0  96  00  00  00  00  00  318  151    0-..... 
 11O 0 0  95 125  00  00  00  00  348  181    0--.... 
 12C 1 0 115 135 145  00  00  00  378  181    0---... 
 13C 3 0 125  00  00  00  00  00  378  151    0-..... 
 14C 3 0 125  00  00  00  00  00  408  181    0-..... 
81      12                                
  1C 1 0  22  61  00  00  00  00  198  181    0--.... 
  2C 1 0  12  31  00  00  00  00  213  207    0--.... 
  3C 1 0  21  42  00  00  00  00  243  207    0--.... 
  4C 0 0  32  51  75  00  00  00  258  181    0---... 
  5C 1 0  41  62  00  00  00  00  243  155    0--.... 
  6C 1 0  52  11  00  00  00  00  213  155    0--.... 
  7N 1 0  45  85  00  00  00  00  288  181    0--.... 
  8C 0 0  75  96 105  00  00  00  318  181    0---... 
  9O 0 0  86  00  00  00  00  00  318  151    0-..... 
 10O 0 0  85 115  00  00  00  00  348  181    0--.... 
 11C 2 0 105 125  00  00  00  00  378  181    0--.... 
 12C 3 0 115  00  00  00  00  00  408  181    0-..... 
82      15                                
  1C 1 0  22  61  00  00  00  00  198  181    0--.... 
  2C 1 0  12  31  00  00  00  00  213  207    0--.... 
  3C 1 0  21  42  00  00  00  00  243  207    0--.... 
  4C 0 0  32  51  75  00  00  00  258  181    0---... 
  5C 0 0  41  62 115  00  00  00  243  155    0---... 
  6C 1 0  52  11  00  00  00  00  213  155    0--.... 
  7O 0 0  45  85  00  00  00  00  284  166    0--.... 
  8C 1 0  75  95 105  00  00  00  310  181    0---... 
  9C 3 0  85  00  00  00  00  00  336  166    0-..... 
 10C 3 0  85  00  00  00  00  00  310  211    0-..... 
 11O 0 0  55 125  00  00  00  00  243  125    0--.... 
 12C 0 0 115 135 156  00  00  00  269  110    0---... 
 13N 1 0 125 145  00  00  00  00  269   80    0--.... 
 14C 3 0 135  00  00  00  00  00  295   65    0-..... 
 15O 0 0 126  00  00  00  00  00  295  125    0-..... 
83      12                                
  1O 0 0  25  65  00  00  00  00  243  125    0--.... 
  2C 0 0  15  35  56  00  00  00  269  110    0---... 
  3N 1 0  25  45  00  00  00  00  269   80    0--.... 
  4C 3 0  35  00  00  00  00  00  295   65    0-..... 
  5O 0 0  26  00  00  00  00  00  295  125    0-..... 
  6N 0 0  15  76  00  00  00  00  243  155    0--.... 
  7C 1 0  66  85  00  00  00  00  243  185    0--.... 
  8C 0 0  75  95 105 115  00  00  243  215    0----.. 
  9C 3 0  85  00  00  00  00  00  243  245    0-..... 
 10C 3 0  85  00  00  00  00  00  213  215    0-..... 
 11S 0 0  85 125  00  00  00  00  273  215    0--.... 
 12C 3 0 115  00  00  00  00  00  303  215    0-..... 
84      13                                
  1C 1 0  22  61  00  00  00  00   83  142    0--.... 
  2C 1 0  12  31  00  00  00  00   98  168    0--.... 
  3C 1 0  21  42  00  00  00  00  128  168    0--.... 
  4C 0 0  32  51  75  00  00  00  143  142    0---... 
  5C 1 0  41  62  00  00  00  00  128  116    0--.... 
  6C 1 0  52  11  00  00  00  00   98  116    0--.... 
  7N 1 0  45  85  00  00  00  00  173  142    0--.... 
  8C 0 0  75  95 136  00  00  00  199  127    0---... 
  9O 0 0  85 105  00  00  00  00  225  142    0--.... 
 10C 1 0  95 115 125  00  00  00  251  127    0---... 
 11C 3 0 105  00  00  00  00  00  277  142    0-..... 
 12C 3 0 105  00  00  00  00  00  251   97    0-..... 
 13O 0 0  86  00  00  00  00  00  199   97    0-..... 
85      12                                
  1C 3 0  25  00  00  00  00  00   75   77    0-..... 
  2C 2 0  15  35  00  00  00  00  101   92    0--.... 
  3C 2 0  25  45  00  00  00  00  101  122    0--.... 
  4N 0 0  35  55  85  00  00  00  127  137    0---... 
  5C 2 0  45  65  00  00  00  00  127  167    0--.... 
  6C 2 0  55  75  00  00  00  00  101  182    0--.... 
  7C 3 0  65  00  00  00  00  00  101  212    0-..... 
  8C 0 0  45  95 126  00  00  00  153  122    0---... 
  9S 0 0  85 105  00  00  00  00  179  137    0--.... 
 10C 2 0  95 115  00  00  00  00  209  137    0--.... 
 11C 3 0 105  00  00  00  00  00  235  122    0-..... 
 12O 0 0  86  00  00  00  00  00  153   92    0-..... 
86      13                                
  1C 2 0  25 125  00  00  00  00   75   77    0--.... 
  2C 2 0  15  35  00  00  00  00  101   92    0--.... 
  3C 2 0  25  45  00  00  00  00  101  122    0--.... 
  4N 0 0  35  55  75  00  00  00  127  137    0---... 
  5C 2 0  45  65  00  00  00  00  127  167    0--.... 
  6C 3 0  55  00  00  00  00  00  101  182    0-..... 
  7C 0 0  45  85 116  00  00  00  153  122    0---... 
  8S 0 0  75  95  00  00  00  00  179  137    0--.... 
  9C 2 0  85 105  00  00  00  00  209  137    0--.... 
 10C 2 0  95 135  00  00  00  00  235  122    0--.... 
 11O 0 0  76  00  00  00  00  00  153   92    0-..... 
 12C 3 0  15  00  00  00  00  00   60   51    0-..... 
 13C 3 0 105  00  00  00  00  00  261  137    0-..... 
87      14                                
  1C 2 0  21  61  00  00  00  00  158  186    0--.... 
  2C 2 0  11  31  00  00  00  00  173  212    0--.... 
  3C 2 0  21  41  00  00  00  00  203  212    0--.... 
  4C 2 0  31  51  00  00  00  00  218  186    0--.... 
  5C 1 0  41  61  75  00  00  00  203  160    0---... 
  6C 2 0  51  11  00  00  00  00  173  160    0--.... 
  7N 0 0  55  85 105  00  00  00  218  134    0---... 
  8C 2 0  75  95  00  00  00  00  192  119    0--.... 
  9C 3 0  85  00  00  00  00  00  162  119    0-..... 
 10C 0 0  75 115 146  00  00  00  248  134    0---... 
 11S 0 0 105 125  00  00  00  00  263  160    0--.... 
 12C 2 0 115 135  00  00  00  00  289  145    0--.... 
 13C 3 0 125  00  00  00  00  00  315  160    0-..... 
 14O 0 0 106  00  00  00  00  00  263  108    0-..... 
88      16                                
  1C 1 0  22  61  00  00  00  00  112  132    0--.... 
  2C 0 0  12  31  75  00  00  00  127  158    0---... 
  3C 1 0  21  42  00  00  00  00  157  158    0--.... 
  4C 0 0  32  51 121  00  00  00  172  132    0---... 
  5C 0 0  41  62 131  00  00  00  157  106    0---... 
  6C 1 0  52  11  00  00  00  00  127  106    0--.... 
  7O 0 0  25  85  00  00  00  00  127  188    0--.... 
  8C 0 0  75  95 116  00  00  00  101  203    0---... 
  9N 1 0  85 105  00  00  00  00   75  188    0--.... 
 10C 3 0  95  00  00  00  00  00   60  214    0-..... 
 11O 0 0  86  00  00  00  00  00  101  233    0-..... 
 12O 0 0  41 141  00  00  00  00  202  132    0--.... 
 13C 2 0  51 141  00  00  00  00  172   80    0--.... 
 14C 0 0 131 121 155 165  00  00  202   80    0----.. 
 15C 3 0 145  00  00  00  00  00  202   50    0-..... 
 16C 3 0 145  00  00  00  00  00  232   80    0-..... 
89      13                                
  1O 0 0  25  65  00  00  00  00  243  125    0--.... 
  2C 0 0  15  35  56  00  00  00  269  110    0---... 
  3N 1 0  25  45  00  00  00  00  269   80    0--.... 
  4C 3 0  35  00  00  00  00  00  295   65    0-..... 
  5O 0 0  26  00  00  00  00  00  295  125    0-..... 
  6N 0 0  15  76  00  00  00  00  243  155    0--.... 
  7C 1 0  66  85  00  00  00  00  243  185    0--.... 
  8C 0 0  75  95 105 115  00  00  243  215    0----.. 
  9C 3 0  85  00  00  00  00  00  243  245    0-..... 
 10C 3 0  85  00  00  00  00  00  213  215    0-..... 
 11S 1 0  85 125 136  00  00  00  273  215    0---... 
 12C 3 0 115  00  00  00  00  00  303  215    0-..... 
 13O 0 0 116  00  00  00  00  00  273  245    0-..... 
90      14                                
  1O 0 0  25  65  00  00  00  00  243  125    0--.... 
  2C 0 0  15  35  56  00  00  00  269  110    0---... 
  3N 1 0  25  45  00  00  00  00  269   80    0--.... 
  4C 3 0  35  00  00  00  00  00  295   65    0-..... 
  5O 0 0  26  00  00  00  00  00  295  125    0-..... 
  6N 0 0  15  76  00  00  00  00  243  155    0--.... 
  7C 1 0  66  85  00  00  00  00  243  185    0--.... 
  8C 0 0  75  95 105 115  00  00  243  215    0----.. 
  9C 3 0  85  00  00  00  00  00  243  245    0-..... 
 10C 3 0  85  00  00  00  00  00  213  215    0-..... 
 11S 1 0  85 125 136 146  00  00  273  215    0----.. 
 12C 3 0 115  00  00  00  00  00  303  215    0-..... 
 13O 0 0 116  00  00  00  00  00  273  245    0-..... 
 14O 0 0 116  00  00  00  00  00  273  185    0-..... 
91      11                                
  1C 1 0  22  61  00  00  00  00  198  181    0--.... 
  2C 1 0  12  31  00  00  00  00  213  207    0--.... 
  3C 1 0  21  42  00  00  00  00  243  207    0--.... 
  4C 0 0  32  51  75  00  00  00  258  181    0---... 
  5C 1 0  41  62  00  00  00  00  243  155    0--.... 
  6C 1 0  52  11  00  00  00  00  213  155    0--.... 
  7N 1 0  45  85  00  00  00  00  288  181    0--.... 
  8C 0 0  75  96 105  00  00  00  318  181    0---... 
  9O 0 0  86  00  00  00  00  00  318  151    0-..... 
 10O 0 0  85 115  00  00  00  00  348  181    0--.... 
 11C 3 0 105  00  00  00  00  00  378  181    0-..... 
92      13                                
  1C 1 0  22  61  00  00  00  00  198  181    0--.... 
  2C 1 0  12  31  00  00  00  00  213  207    0--.... 
  3C 1 0  21  42  00  00  00  00  243  207    0--.... 
  4C 0 0  32  51  75  00  00  00  258  181    0---... 
  5C 1 0  41  62  00  00  00  00  243  155    0--.... 
  6C 1 0  52  11  00  00  00  00  213  155    0--.... 
  7N 1 0  45  85  00  00  00  00  288  181    0--.... 
  8C 0 0  75  96 105  00  00  00  318  181    0---... 
  9O 0 0  86  00  00  00  00  00  318  151    0-..... 
 10O 0 0  85 115  00  00  00  00  348  181    0--.... 
 11C 2 0 105 125  00  00  00  00  378  181    0--.... 
 12C 2 0 115 135  00  00  00  00  408  181    0--.... 
 13C 3 0 125  00  00  00  00  00  438  181    0-..... 
93      14                                
  1C 1 0  22  61  00  00  00  00  198  181    0--.... 
  2C 1 0  12  31  00  00  00  00  213  207    0--.... 
  3C 1 0  21  42  00  00  00  00  243  207    0--.... 
  4C 0 0  32  51  75  00  00  00  258  181    0---... 
  5C 1 0  41  62  00  00  00  00  243  155    0--.... 
  6C 1 0  52  11  00  00  00  00  213  155    0--.... 
  7N 1 0  45  85  00  00  00  00  288  181    0--.... 
  8C 0 0  75  96 105  00  00  00  318  181    0---... 
  9O 0 0  86  00  00  00  00  00  318  151    0-..... 
 10O 0 0  85 115  00  00  00  00  348  181    0--.... 
 11C 2 0 105 125  00  00  00  00  378  181    0--.... 
 12C 2 0 115 135  00  00  00  00  408  181    0--.... 
 13C 2 0 125 145  00  00  00  00  438  181    0--.... 
 14C 3 0 135  00  00  00  00  00  468  181    0-..... 
94      15                                
  1C 1 0  22  61  00  00  00  00  198  181    0--.... 
  2C 1 0  12  31  00  00  00  00  213  207    0--.... 
  3C 1 0  21  42  00  00  00  00  243  207    0--.... 
  4C 0 0  32  51  75  00  00  00  258  181    0---... 
  5C 1 0  41  62  00  00  00  00  243  155    0--.... 
  6C 1 0  52  11  00  00  00  00  213  155    0--.... 
  7N 1 0  45  85  00  00  00  00  288  181    0--.... 
  8C 0 0  75  96 105  00  00  00  318  181    0---... 
  9O 0 0  86  00  00  00  00  00  318  151    0-..... 
 10O 0 0  85 115  00  00  00  00  348  181    0--.... 
 11C 2 0 105 125  00  00  00  00  378  181    0--.... 
 12C 2 0 115 135  00  00  00  00  408  181    0--.... 
 13C 2 0 125 145  00  00  00  00  438  181    0--.... 
 14C 2 0 135 155  00  00  00  00  468  181    0--.... 
 15C 3 0 145  00  00  00  00  00  498  181    0-..... 
95      12                                
  1C 1 0  22  61  00  00  00  00  198  181    0--.... 
  2C 1 0  12  31  00  00  00  00  213  207    0--.... 
  3C 1 0  21  42  00  00  00  00  243  207    0--.... 
  4C 0 0  32  51  75  00  00  00  258  181    0---... 
  5C 1 0  41  62  00  00  00  00  243  155    0--.... 
  6C 0 0  52  11 125  00  00  00  213  155    0---... 
  7N 1 0  45  85  00  00  00  00  288  181    0--.... 
  8C 0 0  75  96 105  00  00  00  318  181    0---... 
  9O 0 0  86  00  00  00  00  00  318  151    0-..... 
 10O 0 0  85 115  00  00  00  00  348  181    0--.... 
 11C 3 0 105  00  00  00  00  00  378  181    0-..... 
 12CL0 0  65  00  00  00  00  00  198  129    0-..... 
96      13                                
  1C 1 0  21 122  00  00  00  00  242  217    0--.... 
  2C 1 0  11  32  00  00  00  00  272  217    0--.... 
  3C 0 0  22  41  65  00  00  00  287  191    0---... 
  4C 1 0  31  52  00  00  00  00  272  165    0--.... 
  5C 0 0  42 115 121  00  00  00  242  165    0---... 
  6N 1 0  35  75  00  00  00  00  317  191    0--.... 
  7C 0 0  65  86  95  00  00  00  347  191    0---... 
  8O 0 0  76  00  00  00  00  00  347  161    0-..... 
  9O 0 0  75 105  00  00  00  00  377  191    0--.... 
 10C 3 0  95  00  00  00  00  00  407  191    0-..... 
 11CL0 0  55  00  00  00  00  00  227  139    0-..... 
 12C 0 0  51  12 135  00  00  00  227  191    0---... 
 13CL0 0 125  00  00  00  00  00  197  191    0-..... 
97      15                                
  1C 0 0  21 112 155  00  00  00  242  217    0---... 
  2C 1 0  11  32  00  00  00  00  272  217    0--.... 
  3C 0 0  22  41  65  00  00  00  287  191    0---... 
  4C 1 0  31  52  00  00  00  00  272  165    0--.... 
  5C 1 0  42 111  00  00  00  00  242  165    0--.... 
  6N 1 0  35  75  00  00  00  00  317  191    0--.... 
  7C 0 0  65  86  95  00  00  00  347  191    0---... 
  8O 0 0  76  00  00  00  00  00  347  161    0-..... 
  9O 0 0  75 105  00  00  00  00  377  191    0--.... 
 10C 1 0  95 125 135  00  00  00  407  191    0---... 
 11C 1 0  51  12  00  00  00  00  227  191    0--.... 
 12C 3 0 105  00  00  00  00  00  407  161    0-..... 
 13C 0 0 105 147  00  00  00  00  437  191    0--.... 
 14C 1 0 137  00  00  00  00  00  452  165    0-..... 
 15CL0 0  15  00  00  00  00  00  227  243    0-..... 
98      14                                
  1C 2 0  25  55  00  00  00  00  224  191    0--.... 
  2C 1 0  15  35  45  00  00  00  198  176    0---... 
  3C 3 0  25  00  00  00  00  00  198  146    0-..... 
  4C 3 0  25  00  00  00  00  00  168  176    0-..... 
  5N 0 0  15  65 105  00  00  00  250  206    0---... 
  6C 2 0  55  75  00  00  00  00  235  232    0--.... 
  7C 1 0  65  85  95  00  00  00  220  258    0---... 
  8C 3 0  75  00  00  00  00  00  190  258    0-..... 
  9C 3 0  75  00  00  00  00  00  235  284    0-..... 
 10C 2 0  55 115  00  00  00  00  280  206    0--.... 
 11O 0 0 105 125  00  00  00  00  310  206    0--.... 
 12S 0 0 115 135  00  00  00  00  340  206    0--.... 
 13C 2 0 125 145  00  00  00  00  370  206    0--.... 
 14C 3 0 135  00  00  00  00  00  396  191    0-..... 
99      15                                
  1C 1 0  22  61  00  00  00  00  272  209    0--.... 
  2C 0 0  12  31 155  00  00  00  287  235    0---... 
  3C 0 0  21  42 135  00  00  00  317  235    0---... 
  4C 0 0  32  51 125  00  00  00  332  209    0---... 
  5C 1 0  41  62  00  00  00  00  317  183    0--.... 
  6C 0 0  52  11  75  00  00  00  287  183    0---... 
  7O 0 0  65  85  00  00  00  00  272  157    0--.... 
  8C 0 0  75  96 105  00  00  00  287  131    0---... 
  9O 0 0  86  00  00  00  00  00  261  116    0-..... 
 10N 1 0  85 115  00  00  00  00  302  105    0--.... 
 11C 3 0 105  00  00  00  00  00  332  105    0-..... 
 12C 3 0  45  00  00  00  00  00  362  209    0-..... 
 13S 0 0  35 145  00  00  00  00  332  261    0--.... 
 14C 3 0 135  00  00  00  00  00  362  261    0-..... 
 15C 3 0  25  00  00  00  00  00  272  261    0-..... 
100     17                                
  1CL0 0  25  00  00  00  00  00  105  153    0-..... 
  2C 1 0  15  35  45  00  00  00  120  179    0---... 
  3CL0 0  25  00  00  00  00  00  105  205    0-..... 
  4C 1 0  25  56  00  00  00  00  150  179    0--.... 
  5C 0 0  46  65  75  00  00  00  180  179    0---... 
  6C 2 0  55  85  00  00  00  00  210  179    0--.... 
  7CL0 0  55  00  00  00  00  00  180  149    0-..... 
  8S 0 0  65  95  00  00  00  00  240  179    0--.... 
  9C 0 0  85 106 115  00  00  00  270  179    0---... 
 10O 0 0  96  00  00  00  00  00  270  149    0-..... 
 11N 0 0  95 125 155  00  00  00  300  179    0---... 
 12C 1 0 115 135 145  00  00  00  315  153    0---... 
 13C 3 0 125  00  00  00  00  00  300  127    0-..... 
 14C 3 0 125  00  00  00  00  00  341  138    0-..... 
 15C 1 0 115 165 175  00  00  00  315  205    0---... 
 16C 3 0 155  00  00  00  00  00  345  205    0-..... 
 17C 3 0 155  00  00  00  00  00  315  235    0-..... 
101     13                                
  1C 0 0  22  61  75  00  00  00  242  173    0---... 
  2C 0 0  12  31  85  00  00  00  257  199    0---... 
  3C 1 0  21  42  00  00  00  00  287  199    0--.... 
  4C 0 0  32  51  95  00  00  00  302  173    0---... 
  5C 1 0  41  62  00  00  00  00  287  147    0--.... 
  6C 1 0  52  11  00  00  00  00  257  147    0--.... 
  7C 3 0  15  00  00  00  00  00  212  173    0-..... 
  8C 3 0  25  00  00  00  00  00  257  229    0-..... 
  9O 0 0  45 105  00  00  00  00  328  188    0--.... 
 10C 0 0  95 116 125  00  00  00  358  188    0---... 
 11O 0 0 106  00  00  00  00  00  384  173    0-..... 
 12N 1 0 105 135  00  00  00  00  373  214    0--.... 
 13C 3 0 125  00  00  00  00  00  373  244    0-..... 
102     15                                
  1C 0 0  22  61  75  00  00  00  216  187    0---... 
  2C 1 0  12  31  00  00  00  00  231  213    0--.... 
  3C 1 0  21  42  00  00  00  00  261  213    0--.... 
  4C 0 0  32  51  85  00  00  00  276  187    0---... 
  5C 1 0  41  62  00  00  00  00  261  161    0--.... 
  6C 1 0  52  11  00  00  00  00  231  161    0--.... 
  7N 2 0  15  00  00  00  00  00  186  187    0-..... 
  8S 0 0  45  96 106 115  00  00  306  187    0----.. 
  9O 0 0  86  00  00  00  00  00  306  157    0-..... 
 10O 0 0  86  00  00  00  00  00  306  217    0-..... 
 11N 1 0  85 125  00  00  00  00  336  187    0--.... 
 12C 0 0 115 136 145  00  00  00  362  202    0---... 
 13O 0 0 126  00  00  00  00  00  388  187    0-..... 
 14O 0 0 125 155  00  00  00  00  362  232    0--.... 
 15C 3 0 145  00  00  00  00  00  388  247    0-..... 
103     14                                
  1C 1 0  22  61  00  00  00  00  213  203    0--.... 
  2C 1 0  12  31  00  00  00  00  228  229    0--.... 
  3C 1 0  21  42  00  00  00  00  258  229    0--.... 
  4C 0 0  32  51  91  00  00  00  273  203    0---... 
  5C 0 0  41  62  71  00  00  00  258  177    0---... 
  6C 1 0  52  11  00  00  00  00  228  177    0--.... 
  7N 0 0  51  82  00  00  00  00  273  151    0--.... 
  8C 0 0  72  91 105  00  00  00  303  151    0---... 
  9N 1 0  81  41  00  00  00  00  303  181    0--.... 
 10N 1 0  85 115  00  00  00  00  318  125    0--.... 
 11C 0 0 105 126 135  00  00  00  318   95    0---... 
 12O 0 0 116  00  00  00  00  00  288   95    0-..... 
 13O 0 0 115 145  00  00  00  00  348   95    0--.... 
 14C 3 0 135  00  00  00  00  00  363   69    0-..... 
104     10                                
  1C 3 0  25  00  00  00  00  00  157  248    0-..... 
  2C 0 0  15  35  56  00  00  00  172  222    0---... 
  3S 0 0  25  45  00  00  00  00  187  248    0--.... 
  4C 3 0  35  00  00  00  00  00  217  248    0-..... 
  5N 0 0  26  65  00  00  00  00  172  192    0--.... 
  6O 0 0  55  75  00  00  00  00  198  177    0--.... 
  7C 0 0  65  86  95  00  00  00  198  147    0---... 
  8O 0 0  76  00  00  00  00  00  168  147    0-..... 
  9N 1 0  75 105  00  00  00  00  224  132    0--.... 
 10C 3 0  95  00  00  00  00  00  250  147    0-..... 
105     20                                
  1C 1 0  22  61  00  00  00  00  114  205    0--.... 
  2C 1 0  12  31  00  00  00  00  129  231    0--.... 
  3C 1 0  21  42  00  00  00  00  159  231    0--.... 
  4C 0 0  32  51  91  00  00  00  174  205    0---... 
  5C 0 0  41  62  71  00  00  00  159  179    0---... 
  6C 1 0  52  11  00  00  00  00  129  179    0--.... 
  7N 1 0  51  81  00  00  00  00  174  153    0--.... 
  8C 1 0  71  91 165  00  00  00  204  153    0---... 
  9N 0 0  81  41 105  00  00  00  204  183    0---... 
 10C 0 0  95 116 125  00  00  00  230  198    0---... 
 11O 0 0 106  00  00  00  00  00  215  224    0-..... 
 12N 1 0 105 135  00  00  00  00  256  213    0--.... 
 13C 2 0 125 145  00  00  00  00  282  198    0--.... 
 14C 2 0 135 155  00  00  00  00  308  213    0--.... 
 15C 3 0 145  00  00  00  00  00  334  198    0-..... 
 16N 1 0  85 175  00  00  00  00  230  138    0--.... 
 17C 0 0 165 186 195  00  00  00  245  112    0---... 
 18O 0 0 176  00  00  00  00  00  219   97    0-..... 
 19O 0 0 175 205  00  00  00  00  275  112    0--.... 
 20C 3 0 195  00  00  00  00  00  290   86    0-..... 
106     14                                
  1O 0 0  26  00  00  00  00  00  254  207    0-..... 
  2C 0 0  16  35  45  00  00  00  254  177    0---... 
  3O 0 0  25  65  00  00  00  00  284  177    0--.... 
  4N 1 0  25  55  00  00  00  00  224  177    0--.... 
  5C 3 0  45  00  00  00  00  00  194  177    0-..... 
  6N 0 0  35  76  00  00  00  00  314  177    0--.... 
  7C 1 0  66  85  00  00  00  00  340  162    0--.... 
  8C 0 0  92 131  75  00  00  00  396  147    0---... 
  9C 1 0  82 101  00  00  00  00  396  117    0--.... 
 10C 1 0  91 112  00  00  00  00  422  103    0--.... 
 11C 0 0 102 121 145  00  00  00  448  117    0---... 
 12C 1 0 111 132  00  00  00  00  448  147    0--.... 
 13C 1 0 122  81  00  00  00  00  422  161    0--.... 
 14CL0 0 115  00  00  00  00  00  474  102    0-..... 
107     13                                
  1O 0 0  26  00  00  00  00  00  254  207    0-..... 
  2C 0 0  16  35  45  00  00  00  254  177    0---... 
  3O 0 0  25  65  00  00  00  00  284  177    0--.... 
  4N 1 0  25  55  00  00  00  00  224  177    0--.... 
  5C 3 0  45  00  00  00  00  00  194  177    0-..... 
  6N 0 0  35  76  00  00  00  00  314  177    0--.... 
  7C 1 0  66  85  00  00  00  00  340  162    0--.... 
  8C 0 0  92 131  75  00  00  00  396  147    0---... 
  9C 1 0  82 101  00  00  00  00  396  117    0--.... 
 10C 1 0  91 112  00  00  00  00  422  103    0--.... 
 11C 1 0 102 121  00  00  00  00  448  117    0--.... 
 12C 1 0 111 132  00  00  00  00  448  147    0--.... 
 13C 1 0 122  81  00  00  00  00  422  161    0--.... 
108     11                                
  1O 0 0  26  00  00  00  00  00  254  207    0-..... 
  2C 0 0  16  35  45  00  00  00  254  177    0---... 
  3O 0 0  25  55  00  00  00  00  284  177    0--.... 
  4N 2 0  25  00  00  00  00  00  224  177    0-..... 
  5C 0 0  62 101  35  00  00  00  335  167    0---... 
  6C 1 0  52  71  00  00  00  00  350  193    0--.... 
  7C 1 0  61  82  00  00  00  00  380  193    0--.... 
  8C 1 0  72  91  00  00  00  00  395  167    0--.... 
  9C 0 0  81 102 115  00  00  00  380  141    0---... 
 10C 1 0  92  51  00  00  00  00  350  141    0--.... 
 11BR0 0  95  00  00  00  00  00  395  115    0-..... 
109     12                                
  1O 0 0  26  00  00  00  00  00  254  207    0-..... 
  2C 0 0  16  35  45  00  00  00  254  177    0---... 
  3O 0 0  25  55  00  00  00  00  284  177    0--.... 
  4N 2 0  25  00  00  00  00  00  224  177    0-..... 
  5C 0 0  62 101  35  00  00  00  335  167    0---... 
  6C 1 0  52  71  00  00  00  00  350  193    0--.... 
  7C 1 0  61  82  00  00  00  00  380  193    0--.... 
  8C 1 0  72  91  00  00  00  00  395  167    0--.... 
  9C 0 0  81 102 115  00  00  00  380  141    0---... 
 10C 1 0  92  51  00  00  00  00  350  141    0--.... 
 11C 2 0  95 125  00  00  00  00  395  115    0--.... 
 12C 3 0 115  00  00  00  00  00  380   89    0-..... 
110     11                                
  1O 0 0  26  00  00  00  00  00  254  207    0-..... 
  2C 0 0  16  35  45  00  00  00  254  177    0---... 
  3O 0 0  25  55  00  00  00  00  284  177    0--.... 
  4N 2 0  25  00  00  00  00  00  224  177    0-..... 
  5C 0 0  62 101  35  00  00  00  335  167    0---... 
  6C 1 0  52  71  00  00  00  00  350  193    0--.... 
  7C 1 0  61  82  00  00  00  00  380  193    0--.... 
  8C 1 0  72  91  00  00  00  00  395  167    0--.... 
  9C 0 0  81 102 115  00  00  00  380  141    0---... 
 10C 1 0  92  51  00  00  00  00  350  141    0--.... 
[...]
 15C 3 0 115  00  00  00  00  00  339  201    0-..... 
 16C 3 0  85  00  00  00  00  00  174  257    0-..... 
306     14                                
  1N 0 0  22  61  00  00  00  00  204  175    0--.... 
  2C 0 0  12  31  75  00  00  00  219  201    0---... 
  3N 0 0  21  42  00  00  00  00  249  201    0--.... 
  4C 0 0  32  51 105  00  00  00  264  175    0---... 
  5N 0 0  41  62  00  00  00  00  249  149    0--.... 
  6C 0 0  52  11  95  00  00  00  219  149    0---... 
  7N 1 0  25  85  00  00  00  00  204  227    0--.... 
  8C 1 0  75 125 145  00  00  00  204  257    0---... 
  9CL0 0  65  00  00  00  00  00  204  123    0-..... 
 10N 1 0  45 115  00  00  00  00  294  175    0--.... 
 11C 2 0 105 135  00  00  00  00  309  201    0--.... 
 12C 3 0  85  00  00  00  00  00  204  287    0-..... 
 13C 3 0 115  00  00  00  00  00  339  201    0-..... 
 14C 3 0  85  00  00  00  00  00  174  257    0-..... 
307     16                                
  1N 0 0  22  61  00  00  00  00  204  175    0--.... 
  2C 0 0  12  31  75  00  00  00  219  201    0---... 
  3N 0 0  21  42  00  00  00  00  249  201    0--.... 
  4C 0 0  32  51 105  00  00  00  264  175    0---... 
  5N 0 0  41  62  00  00  00  00  249  149    0--.... 
  6C 0 0  52  11  95  00  00  00  219  149    0---... 
  7N 1 0  25  85  00  00  00  00  204  227    0--.... 
  8C 1 0  75 115 125  00  00  00  204  257    0---... 
  9CL0 0  65  00  00  00  00  00  204  123    0-..... 
 10N 0 0  45 135 155  00  00  00  294  175    0---... 
 11C 3 0  85  00  00  00  00  00  204  287    0-..... 
 12C 3 0  85  00  00  00  00  00  174  257    0-..... 
 13C 2 0 105 145  00  00  00  00  294  145    0--.... 
 14C 3 0 135  00  00  00  00  00  294  115    0-..... 
 15C 2 0 105 165  00  00  00  00  324  175    0--.... 
 16C 3 0 155  00  00  00  00  00  354  175    0-..... 
308     15                                
  1N 0 0  22  61  00  00  00  00  204  175    0--.... 
  2C 0 0  12  31  75  00  00  00  219  201    0---... 
  3N 0 0  21  42  00  00  00  00  249  201    0--.... 
  4C 0 0  32  51 105  00  00  00  264  175    0---... 
  5N 0 0  41  62  00  00  00  00  249  149    0--.... 
  6C 0 0  52  11  95  00  00  00  219  149    0---... 
  7N 1 0  25  85  00  00  00  00  204  227    0--.... 
  8C 2 0  75 115  00  00  00  00  204  257    0--.... 
  9CL0 0  65  00  00  00  00  00  204  123    0-..... 
 10N 0 0  45 125 145  00  00  00  294  175    0---... 
 11C 3 0  85  00  00  00  00  00  204  287    0-..... 
 12C 2 0 105 135  00  00  00  00  294  145    0--.... 
 13C 3 0 125  00  00  00  00  00  294  115    0-..... 
 14C 2 0 105 155  00  00  00  00  324  175    0--.... 
 15C 3 0 145  00  00  00  00  00  354  175    0-..... 
309     17                                
  1N 0 0  22  61  00  00  00  00  204  175    0--.... 
  2C 0 0  12  31  75  00  00  00  219  201    0---... 
  3N 0 0  21  42  00  00  00  00  249  201    0--.... 
  4C 0 0  32  51 105  00  00  00  264  175    0---... 
  5N 0 0  41  62  00  00  00  00  249  149    0--.... 
  6C 0 0  52  11  95  00  00  00  219  149    0---... 
  7N 1 0  25  85  00  00  00  00  204  227    0--.... 
  8C 1 0  75 115 175  00  00  00  204  257    0---... 
  9S 0 0  65 145  00  00  00  00  204  123    0--.... 
 10N 1 0  45 125  00  00  00  00  294  175    0--.... 
 11C 3 0  85  00  00  00  00  00  204  287    0-..... 
 12C 1 0 105 135 165  00  00  00  324  175    0---... 
 13C 3 0 125  00  00  00  00  00  354  175    0-..... 
 14C 2 0  95 155  00  00  00  00  174  123    0--.... 
 15C 3 0 145  00  00  00  00  00  144  123    0-..... 
 16C 3 0 125  00  00  00  00  00  324  145    0-..... 
 17C 3 0  85  00  00  00  00  00  174  257    0-..... 
310     15                                
  1N 0 0  22  61  00  00  00  00  204  175    0--.... 
  2C 0 0  12  31  75  00  00  00  219  201    0---... 
  3N 0 0  21  42  00  00  00  00  249  201    0--.... 
  4C 0 0  32  51 105  00  00  00  264  175    0---... 
  5N 0 0  41  62  00  00  00  00  249  149    0--.... 
  6C 0 0  52  11  95  00  00  00  219  149    0---... 
  7N 1 0  25  85  00  00  00  00  204  227    0--.... 
  8C 2 0  75 115  00  00  00  00  204  257    0--.... 
  9CL0 0  65  00  00  00  00  00  204  123    0-..... 
 10N 1 0  45 125  00  00  00  00  294  175    0--.... 
 11C 3 0  85  00  00  00  00  00  204  287    0-..... 
 12C 0 0 105 135 145 155  00  00  324  175    0----.. 
 13C 3 0 125  00  00  00  00  00  354  175    0-..... 
 14C 3 0 125  00  00  00  00  00  324  145    0-..... 
 15C 3 0 125  00  00  00  00  00  324  205    0-..... 
311     16                                
  1N 0 0  22  61  00  00  00  00  204  175    0--.... 
  2C 0 0  12  31  75  00  00  00  219  201    0---... 
  3N 0 0  21  42  00  00  00  00  249  201    0--.... 
  4C 0 0  32  51 105  00  00  00  264  175    0---... 
  5N 0 0  41  62  00  00  00  00  249  149    0--.... 
  6C 0 0  52  11  95  00  00  00  219  149    0---... 
  7N 1 0  25  85  00  00  00  00  204  227    0--.... 
  8C 1 0  75 115 155  00  00  00  204  257    0---... 
  9S 0 0  65 165  00  00  00  00  204  123    0--.... 
 10N 1 0  45 125  00  00  00  00  294  175    0--.... 
 11C 3 0  85  00  00  00  00  00  204  287    0-..... 
 12C 1 0 105 135 145  00  00  00  324  175    0---... 
 13C 3 0 125  00  00  00  00  00  354  175    0-..... 
 14C 3 0 125  00  00  00  00  00  324  145    0-..... 
 15C 3 0  85  00  00  00  00  00  174  257    0-..... 
 16C 3 0  95  00  00  00  00  00  174  123    0-..... 
312     14                                
  1C 0 0  22  61 115  00  00  00  204  175    0---... 
  2C 0 0  12  31  76  00  00  00  219  201    0---... 
  3N 1 0  21  42 105  00  00  00  249  201    0---... 
  4C 0 0  32  51  85  00  00  00  264  175    0---... 
  5N 0 0  41  62  00  00  00  00  249  149    0--.... 
  6N 0 0  52  11  00  00  00  00  219  149    0--.... 
  7O 0 0  26  00  00  00  00  00  204  227    0-..... 
  8S 0 0  45  95  00  00  00  00  294  175    0--.... 
  9C 3 0  85  00  00  00  00  00  324  175    0-..... 
 10N 2 0  35  00  00  00  00  00  264  227    0-..... 
 11C 0 0  15 125 135 145  00  00  174  175    0----.. 
 12C 3 0 115  00  00  00  00  00  174  205    0-..... 
 13C 3 0 115  00  00  00  00  00  174  145    0-..... 
 14C 3 0 115  00  00  00  00  00  144  175    0-..... 
313     16                                
  1N 0 0  22  61  00  00  00  00  204  175    0--.... 
  2C 0 0  12  31 105  00  00  00  219  201    0---... 
  3N 0 0  21  42  00  00  00  00  249  201    0--.... 
  4C 0 0  32  51  75  00  00  00  264  175    0---... 
  5N 0 0  41  62  00  00  00  00  249  149    0--.... 
  6C 0 0  52  11 115  00  00  00  219  149    0---... 
  7N 1 0  45  85  00  00  00  00  294  175    0--.... 
  8C 2 0  75  95  00  00  00  00  324  175    0--.... 
  9C 3 0  85  00  00  00  00  00  354  175    0-..... 
 10CL0 0  25  00  00  00  00  00  204  227    0-..... 
 11N 1 0  65 125  00  00  00  00  204  123    0--.... 
 12C 0 0 115 135 145 165  00  00  189   97    0----.. 
 13C 3 0 125  00  00  00  00  00  174   71    0-..... 
 14C 0 0 125 157  00  00  00  00  215   82    0--.... 
 15N 0 0 147  00  00  00  00  00  241   67    0-..... 
 16C 3 0 125  00  00  00  00  00  163  112    0-..... 
314     16                                
  1N 0 0  22  61  00  00  00  00  204  175    0--.... 
  2C 0 0  12  31 125  00  00  00  219  201    0---... 
  3N 0 0  21  42  00  00  00  00  249  201    0--.... 
  4C 0 0  32  51  75  00  00  00  264  175    0---... 
  5N 0 0  41  62  00  00  00  00  249  149    0--.... 
  6C 0 0  52  11 105  00  00  00  219  149    0---... 
  7N 1 0  45  85  00  00  00  00  294  175    0--.... 
  8C 2 0  75  95  00  00  00  00  320  190    0--.... 
  9C 3 0  85  00  00  00  00  00  346  205    0-..... 
 10O 0 0  65 115  00  00  00  00  204  123    0--.... 
 11C 3 0 105  00  00  00  00  00  174  123    0-..... 
 12N 1 0  25 135  00  00  00  00  204  227    0--.... 
 13C 1 0 125 145 155  00  00  00  219  253    0---... 
 14C 3 0 135  00  00  00  00  00  204  279    0-..... 
 15C 2 0 135 165  00  00  00  00  245  268    0--.... 
 16C 3 0 155  00  00  00  00  00  271  283    0-..... 
315     15                                
  1C 1 0  22  61  00  00  00  00  129  144    0--.... 
  2C 1 0  12  31  00  00  00  00  144  170    0--.... 
  3C 0 0  21  42  75  00  00  00  174  170    0---... 
  4C 1 0  32  51  00  00  00  00  189  144    0--.... 
  5C 1 0  41  62  00  00  00  00  174  118    0--.... 
  6C 1 0  52  11  00  00  00  00  144  118    0--.... 
  7C 0 0  35  82  91  00  00  00  189  196    0---... 
  8N 0 0  72 121  00  00  00  00  215  181    0--.... 
  9C 0 0  71 101 156  00  00  00  189  226    0---... 
 10N 0 0  91 111 135  00  00  00  215  241    0---... 
 11C 0 0 101 122 145  00  00  00  241  226    0---... 
 12N 0 0 112  81  00  00  00  00  241  196    0--.... 
 13N 2 0 105  00  00  00  00  00  215  271    0-..... 
 14C 3 0 115  00  00  00  00  00  267  241    0-..... 
 15O 0 0  96  00  00  00  00  00  163  241    0-..... 
316      6                                
  1N 0 0  22  31  00  00  00  00  174  255    0--.... 
  2C 1 0  12  51  00  00  00  00  159  229    0--.... 
  3C 0 0  11  42  65  00  00  00  204  255    0---... 
  4N 0 0  32  51  00  00  00  00  219  229    0--.... 
  5N 1 0  41  21  00  00  00  00  204  203    0--.... 
  6N 2 0  35  00  00  00  00  00  219  281    0-..... 
317     14                                
  1C 1 0  22  61  00  00  00  00  152  219    0--.... 
  2C 1 0  12  31  00  00  00  00  167  245    0--.... 
  3C 1 0  21  42  00  00  00  00  197  245    0--.... 
  4C 0 0  32  51  81  00  00  00  212  219    0---... 
  5C 0 0  41  62  71  00  00  00  197  193    0---... 
  6C 1 0  52  11  00  00  00  00  167  193    0--.... 
  7N 0 0  51  92  00  00  00  00  212  167    0--.... 
  8N 1 0  41  91  00  00  00  00  242  219    0--.... 
  9C 0 0  72  81 105  00  00  00  238  182    0---... 
 10C 0 0  95 112 141  00  00  00  264  167    0---... 
 11C 1 0 102 121  00  00  00  00  279  141    0--.... 
 12S 0 0 111 131  00  00  00  00  309  141    0--.... 
 13C 1 0 121 142  00  00  00  00  324  167    0--.... 
 14N 0 0 132 101  00  00  00  00  309  193    0--.... 
318     19                                
  1C 0 0  22  61  85  00  00  00   81  182    0---... 
  2C 1 0  12  31  00  00  00  00   96  208    0--.... 
  3C 1 0  21  42  00  00  00  00  126  208    0--.... 
  4C 0 0  32  51  95  00  00  00  141  182    0---... 
  5C 0 0  41  62  75  00  00  00  126  156    0---... 
  6C 1 0  52  11  00  00  00  00   96  156    0--.... 
  7CL0 0  55  00  00  00  00  00  141  130    0-..... 
  8CL0 0  15  00  00  00  00  00   51  182    0-..... 
  9C 1 0  45 105 145  00  00  00  171  182    0---... 
 10O 0 0  95 115  00  00  00  00  186  156    0--.... 
 11C 2 0 105 125  00  00  00  00  216  156    0--.... 
 12C 1 0 115 136  00  00  00  00  231  130    0--.... 
 13C 2 0 126  00  00  00  00  00  261  130    0-..... 
 14C 2 0  95 155  00  00  00  00  186  208    0--.... 
 15N 0 0 145 161 191  00  00  00  216  208    0---... 
 16C 1 0 151 172  00  00  00  00  242  193    0--.... 
 17C 1 0 162 181  00  00  00  00  272  193    0--.... 
 18N 0 0 171 192  00  00  00  00  272  223    0--.... 
 19C 1 0 182 151  00  00  00  00  242  223    0--.... 
319     13                                
  1C 1 0  22  61  00  00  00  00  118  197    0--.... 
  2C 1 0  12  31  00  00  00  00  133  223    0--.... 
  3C 0 0  21  42 135  00  00  00  163  223    0---... 
  4C 0 0  32  51  91  00  00  00  178  197    0---... 
  5C 0 0  41  62  71  00  00  00  163  171    0---... 
  6C 1 0  52  11  00  00  00  00  133  171    0--.... 
  7S 0 0  51  81  00  00  00  00  178  145    0--.... 
  8C 0 0  71  91 102  00  00  00  208  145    0---... 
  9N 0 0  81  41 121  00  00  00  223  171    0---... 
 10N 0 0  82 111  00  00  00  00  223  119    0--.... 
 11N 0 0 101 122  00  00  00  00  253  119    0--.... 
 12C 1 0 112  91  00  00  00  00  268  145    0--.... 
 13C 3 0  35  00  00  00  00  00  178  249    0-..... 
320     20                                
  1C 1 0  22  61  00  00  00  00  123  172    0--.... 
  2C 1 0  12  31  00  00  00  00  138  198    0--.... 
  3C 0 0  21  42  85  00  00  00  168  198    0---... 
  4C 1 0  32  51  00  00  00  00  183  172    0--.... 
  5C 1 0  41  62  00  00  00  00  168  146    0--.... 
  6C 0 0  52  11  75  00  00  00  138  146    0---... 
  7CL0 0  65  00  00  00  00  00  123  120    0-..... 
  8O 0 0  35  95  00  00  00  00  183  224    0--.... 
  9C 1 0  85 105 165  00  00  00  213  224    0---... 
 10C 0 0  95 116 125  00  00  00  213  194    0---... 
 11O 0 0 106  00  00  00  00  00  213  164    0-..... 
 12C 0 0 105 135 145 155  00  00  243  194    0----.. 
 13C 3 0 125  00  00  00  00  00  243  164    0-..... 
 14C 3 0 125  00  00  00  00  00  273  194    0-..... 
 15C 3 0 125  00  00  00  00  00  243  224    0-..... 
 16N 0 0  95 171 201  00  00  00  213  254    0---... 
 17N 0 0 161 182  00  00  00  00  239  269    0--.... 
 18C 1 0 172 191  00  00  00  00  239  299    0--.... 
 19N 0 0 181 202  00  00  00  00  209  299    0--.... 
 20C 1 0 192 161  00  00  00  00  194  273    0--.... 
321     23                                
  1C 1 0  22  61  00  00  00  00  123  172    0--.... 
  2C 0 0  12  31 145  00  00  00  138  198    0---... 
  3C 0 0  21  42  75  00  00  00  168  198    0---... 
  4C 1 0  32  51  00  00  00  00  183  172    0--.... 
  5C 1 0  41  62  00  00  00  00  168  146    0--.... 
  6C 0 0  52  11 155  00  00  00  138  146    0---... 
  7C 1 0  35  85 165  00  00  00  183  224    0---... 
  8C 2 0  75  95  00  00  00  00  213  224    0--.... 
  9N 0 0  85 101 131  00  00  00  213  254    0---... 
 10N 0 0  91 112  00  00  00  00  239  269    0--.... 
 11C 1 0 102 121  00  00  00  00  239  299    0--.... 
 12N 0 0 111 132  00  00  00  00  209  299    0--.... 
 13C 1 0 122  91  00  00  00  00  194  273    0--.... 
 14CL0 0  25  00  00  00  00  00  123  224    0-..... 
 15CL0 0  65  00  00  00  00  00  123  120    0-..... 
 16C 1 0  75 171 201  00  00  00  157  239    0---... 
 17O 0 0 161 181  00  00  00  00  127  239    0--.... 
 18C 2 0 171 191  00  00  00  00  112  265    0--.... 
 19C 1 0 181 201 215  00  00  00  138  280    0---... 
 20O 0 0 191 161  00  00  00  00  164  265    0--.... 
 21C 2 0 195 225  00  00  00  00  138  310    0--.... 
 22C 2 0 215 235  00  00  00  00  138  340    0--.... 
 23C 3 0 225  00  00  00  00  00  164  355    0-..... 
322      9                                
  1C 1 0  22  61  00  00  00  00  103  196    0--.... 
  2C 1 0  12  31  00  00  00  00  118  222    0--.... 
  3C 1 0  21  42  00  00  00  00  148  222    0--.... 
  4C 0 0  32  51  91  00  00  00  163  196    0---... 
  5C 0 0  41  62  71  00  00  00  148  170    0---... 
  6C 1 0  52  11  00  00  00  00  118  170    0--.... 
  7N 0 0  51  82  00  00  00  00  163  144    0--.... 
  8N 0 0  72  91  00  00  00  00  189  159    0--.... 
  9N 1 0  81  41  00  00  00  00  189  189    0--.... 
323     11                                
  1C 0 0  22  61 105  00  00  00  103  196    0---... 
  2C 0 0  12  31 115  00  00  00  118  222    0---... 
  3C 1 0  21  42  00  00  00  00  148  222    0--.... 
  4C 0 0  32  51  91  00  00  00  163  196    0---... 
  5C 0 0  41  62  71  00  00  00  148  170    0---... 
  6C 1 0  52  11  00  00  00  00  118  170    0--.... 
  7N 0 0  51  82  00  00  00  00  163  144    0--.... 
  8N 0 0  72  91  00  00  00  00  189  159    0--.... 
  9N 1 0  81  41  00  00  00  00  189  189    0--.... 
 10CL0 0  15  00  00  00  00  00   73  196    0-..... 
 11CL0 0  25  00  00  00  00  00  103  248    0-..... 
324     13                                
  1C 1 0  22  61  00  00  00  00  103  196    0--.... 
  2C 0 0  12  31 105  00  00  00  118  222    0---... 
  3C 1 0  21  42  00  00  00  00  148  222    0--.... 
  4C 0 0  32  51  91  00  00  00  163  196    0---... 
  5C 0 0  41  62  71  00  00  00  148  170    0---... 
  6C 1 0  52  11  00  00  00  00  118  170    0--.... 
  7N 0 0  51  82  00  00  00  00  163  144    0--.... 
  8N 0 0  72  91  00  00  00  00  189  159    0--.... 
  9N 1 0  81  41  00  00  00  00  189  189    0--.... 
 10C 2 0  25 115  00  00  00  00  103  248    0--.... 
 11C 2 0 105 125  00  00  00  00  118  274    0--.... 
 12C 2 0 115 135  00  00  00  00  148  274    0--.... 
 13C 3 0 125  00  00  00  00  00  178  274    0-..... 
325     10                                
  1C 1 0  22  61  00  00  00  00  103  196    0--.... 
  2C 0 0  12  31 105  00  00  00  118  222    0---... 
  3C 1 0  21  42  00  00  00  00  148  222    0--.... 
  4C 0 0  32  51  91  00  00  00  163  196    0---... 
  5C 0 0  41  62  71  00  00  00  148  170    0---... 
  6C 1 0  52  11  00  00  00  00  118  170    0--.... 
  7N 0 0  51  82  00  00  00  00  163  144    0--.... 
  8N 0 0  72  91  00  00  00  00  189  159    0--.... 
  9N 1 0  81  41  00  00  00  00  189  189    0--.... 
 10CL0 0  25  00  00  00  00  00  103  248    0-..... 
326     10                                
  1C 1 0  22  61  00  00  00  00  103  196    0--.... 
  2C 0 0  12  31 105  00  00  00  118  222    0---... 
  3C 1 0  21  42  00  00  00  00  148  222    0--.... 
  4C 0 0  32  51  91  00  00  00  163  196    0---... 
  5C 0 0  41  62  71  00  00  00  148  170    0---... 
  6C 1 0  52  11  00  00  00  00  118  170    0--.... 
  7N 0 0  51  82  00  00  00  00  163  144    0--.... 
  8N 0 0  72  91  00  00  00  00  189  159    0--.... 
  9N 1 0  81  41  00  00  00  00  189  189    0--.... 
 10F 0 0  25  00  00  00  00  00  103  248    0-..... 
327     11                                
  1C 1 0  22  61  00  00  00  00  103  196    0--.... 
  2C 0 0  12  31 105  00  00  00  118  222    0---... 
  3C 1 0  21  42  00  00  00  00  148  222    0--.... 
  4C 0 0  32  51  91  00  00  00  163  196    0---... 
  5C 0 0  41  62  71  00  00  00  148  170    0---... 
  6C 1 0  52  11  00  00  00  00  118  170    0--.... 
  7N 0 0  51  82  00  00  00  00  163  144    0--.... 
  8N 0 0  72  91  00  00  00  00  189  159    0--.... 
  9N 1 0  81  41  00  00  00  00  189  189    0--.... 
 10O 0 0  25 115  00  00  00  00  103  248    0--.... 
 11C 3 0 105  00  00  00  00  00  118  274    0-..... 
328     23                                
  1C 0 0  22  61  75  00  00  00  202  179    0---... 
  2C 0 0  12  31 135  00  00  00  217  205    0---... 
  3C 1 0  21  42  00  00  00  00  247  205    0--.... 
  4C 0 0  32  51  95  00  00  00  262  179    0---... 
  5C 0 0  41  62  85  00  00  00  247  153    0---... 
  6C 1 0  52  11  00  00  00  00  217  153    0--.... 
  7CL0 0  15  00  00  00  00  00  172  179    0-..... 
  8CL0 0  55  00  00  00  00  00  262  127    0-..... 
  9O 0 0  45 105  00  00  00  00  292  179    0--.... 
 10C 1 0  95 115 125  00  00  00  307  205    0---... 
 11C 3 0 105  00  00  00  00  00  337  205    0-..... 
 12C 3 0 105  00  00  00  00  00  292  231    0-..... 
 13N 0 0  25 141 171  00  00  00  202  231    0---... 
 14N 1 0 131 235 152  00  00  00  176  246    0---... 
 15C 0 0 161 195 142  00  00  00  191  272    0---... 
 16O 0 0 151 171  00  00  00  00  221  272    0--.... 
 17C 0 0 161 131 186  00  00  00  236  246    0---... 
 18O 0 0 176  00  00  00  00  00  266  246    0-..... 
 19C 0 0 155 205 215 225  00  00  176  298    0----.. 
 20C 3 0 195  00  00  00  00  00  146  298    0-..... 
 21C 3 0 195  00  00  00  00  00  202  313    0-..... 
 22C 3 0 195  00  00  00  00  00  176  328    0-..... 
 23C 3 0 145  00  00  00  00  00  202  231    0-..... 

 




