1       37  C26H27-NO10          1
  1C 1 0  22  61  00  00  00  00   67   67    0--....
  2C 1 0  12  31  00  00  00  00   31   81    0--....
  3C 1 0  21  42  00  00  00  00   31  109    0--....
  4C 0 0  32  51 195  00  00  00   67  123    0---...
  5C 0 0  41  62 101  00  00  00  103  109    0---...
  6C 0 0  52  11  71  00  00  00  103   81    0---...
  7C 0 0  61  81 216  00  00  00  139   67    0---...
  8C 0 0  71  92 111  00  00  00  175   81    0---...
  9C 0 0  82 101 141  00  00  00  175  109    0---...
 10C 0 0  91  51 206  00  00  00  139  123    0---...
 11C 0 0  81 122 235  00  00  00  211   67    0---...
 12C 0 0 112 131 151  00  00  00  247   81    0---...
 13C 0 0 121 142 181  00  00  00  247  109    0---...
 14C 0 0 132  91 225  00  00  00  211  123    0---...
 15C 2 0 121 161  00  00  00  00  283   67    0--....
 16C 0 0 151 171 335 345  00  00  319   81    0----..
 17C 2 0 161 181  00  00  00  00  319  109    0--....
 18C 1 0 171 131 375  00  00  00  283  123    0---...
 19O 1 0  45  00  00  00  00  00   67  151    0-.....
 20O 0 0 106  00  00  00  00  00  139  151    0-.....
 21O 0 0  76  00  00  00  00  00  139   39    0-.....
 22O 1 0 145  00  00  00  00  00  211  151    0-.....
 23O 1 0 115  00  00  00  00  00  211   39    0-.....
 24C 1 0 251 291 375  00  00  00  283  151    0---...
 25O 0 0 241 261  00  00  00  00  247  165    0--....
 26C 1 0 251 271 305  00  00  00  247  193    0---...
 27C 1 0 261 281 315  00  00  00  283  207    0---...
 28C 1 0 271 291 325  00  00  00  319  193    0---...
 29C 2 0 281 241  00  00  00  00  319  165    0--....
 30C 3 0 265  00  00  00  00  00  205  193    0-.....
 31O 1 0 275  00  00  00  00  00  283  235    0-.....
 32N 2 0 285  00  00  00  00  00  355  207    0-.....
 33O 1 0 165  00  00  00  00  00  340  105    0-.....
 34C 0 0 165 355 366  00  00  00  355   67    0---...
 35C 3 0 345  00  00  00  00  00  397   67    0-.....
 36O 0 0 346  00  00  00  00  00  355   39    0-.....
 37O 0 0 185 245  00  00  00  00  319  137    0--....
2       38  C26H26-ClNO10        1
  1C 1 0  22  61  00  00  00  00   67   67    0--....
  2C 1 0  12  31  00  00  00  00   31   81    0--....
  3C 1 0  21  42  00  00  00  00   31  109    0--....
  4C 0 0  32  51 195  00  00  00   67  123    0---...
  5C 0 0  41  62 101  00  00  00  103  109    0---...
  6C 0 0  11  52  71  00  00  00  103   81    0---...
  7C 0 0  61  81 216  00  00  00  139   67    0---...
  8C 0 0  71  92 111  00  00  00  175   81    0---...
  9C 0 0  82 101 141  00  00  00  175  109    0---...
 10C 0 0  51  91 206  00  00  00  139  123    0---...
 11C 0 0  81 122 235  00  00  00  211   67    0---...
 12C 0 0 112 131 151  00  00  00  247   81    0---...
 13C 0 0 121 142 181  00  00  00  247  109    0---...
 14C 0 0  91 132 225  00  00  00  211  123    0---...
 15C 2 0 121 161  00  00  00  00  283   67    0--....
 16C 0 0 151 171 335 345  00  00  319   81    0----..
 17C 2 0 161 181  00  00  00  00  319  109    0--....
 18C 1 0 131 171 375  00  00  00  283  123    0---...
 19O 1 0  45  00  00  00  00  00   67  151    0-.....
 20O 0 0 106  00  00  00  00  00  139  151    0-.....
 21O 0 0  76  00  00  00  00  00  139   39    0-.....
 22O 1 0 145  00  00  00  00  00  211  151    0-.....
 23O 1 0 115  00  00  00  00  00  211   39    0-.....
 24C 1 0 251 291 375  00  00  00  283  151    0---...
 25O 0 0 241 261  00  00  00  00  247  165    0--....
 26C 1 0 251 271 305  00  00  00  247  193    0---...
 27C 1 0 261 281 315  00  00  00  283  207    0---...
 28C 1 0 271 291 325  00  00  00  319  193    0---...
 29C 2 0 241 281  00  00  00  00  319  165    0--....
 30C 3 0 265  00  00  00  00  00  205  193    0-.....
 31O 1 0 275  00  00  00  00  00  283  235    0-.....
 32N 2 0 285  00  00  00  00  00  355  207    0-.....
 33O 1 0 165  00  00  00  00  00  340  105    0-.....
 34C 0 0 165 355 366  00  00  00  355   67    0---...
 35C 2 0 345 385  00  00  00  00  397   67    0--....
 36O 0 0 346  00  00  00  00  00  355   39    0-.....
 37O 0 0 185 245  00  00  00  00  319  137    0--....
 38CL0 0 355  00  00  00  00  00  418   91    0-.....
3       38  C26H26-BrNO10        1
  1C 1 0  22  61  00  00  00  00   67   67    0--....
  2C 1 0  12  31  00  00  00  00   31   81    0--....
  3C 1 0  21  42  00  00  00  00   31  109    0--....
  4C 0 0  32  51 195  00  00  00   67  123    0---...
  5C 0 0  41  62 101  00  00  00  103  109    0---...
  6C 0 0  11  52  71  00  00  00  103   81    0---...
  7C 0 0  61  81 216  00  00  00  139   67    0---...
  8C 0 0  71  92 111  00  00  00  175   81    0---...
  9C 0 0  82 101 141  00  00  00  175  109    0---...
 10C 0 0  51  91 206  00  00  00  139  123    0---...
 11C 0 0  81 122 235  00  00  00  211   67    0---...
 12C 0 0 112 131 151  00  00  00  247   81    0---...
 13C 0 0 121 142 181  00  00  00  247  109    0---...
 14C 0 0  91 132 225  00  00  00  211  123    0---...
 15C 2 0 121 161  00  00  00  00  283   67    0--....
 16C 0 0 151 171 335 345  00  00  319   81    0----..
 17C 2 0 161 181  00  00  00  00  319  109    0--....
 18C 1 0 131 171 375  00  00  00  283  123    0---...
 19O 1 0  45  00  00  00  00  00   67  151    0-.....
 20O 0 0 106  00  00  00  00  00  139  151    0-.....
 21O 0 0  76  00  00  00  00  00  139   39    0-.....
 22O 1 0 145  00  00  00  00  00  211  151    0-.....
 23O 1 0 115  00  00  00  00  00  211   39    0-.....
 24C 1 0 251 291 375  00  00  00  283  151    0---...
 25O 0 0 241 261  00  00  00  00  247  165    0--....
 26C 1 0 251 271 305  00  00  00  247  193    0---...
 27C 1 0 261 281 315  00  00  00  283  207    0---...
 28C 1 0 271 291 325  00  00  00  319  193    0---...
 29C 2 0 241 281  00  00  00  00  319  165    0--....
 30C 3 0 265  00  00  00  00  00  205  193    0-.....
 31O 1 0 275  00  00  00  00  00  283  235    0-.....
 32N 2 0 285  00  00  00  00  00  355  207    0-.....
 33O 1 0 165  00  00  00  00  00  340  105    0-.....
 34C 0 0 165 355 366  00  00  00  355   67    0---...
 35C 2 0 345 385  00  00  00  00  397   67    0--....
 36O 0 0 346  00  00  00  00  00  355   39    0-.....
 37O 0 0 185 245  00  00  00  00  319  137    0--....
 38BR0 0 355  00  00  00  00  00  418   91    0-.....
4       38  C26H26-INO10         1
  1C 1 0  22  61  00  00  00  00   67   67    0--....
  2C 1 0  12  31  00  00  00  00   31   81    0--....
  3C 1 0  21  42  00  00  00  00   31  109    0--....
  4C 0 0  32  51 195  00  00  00   67  123    0---...
  5C 0 0  41  62 101  00  00  00  103  109    0---...
  6C 0 0  11  52  71  00  00  00  103   81    0---...
  7C 0 0  61  81 216  00  00  00  139   67    0---...
  8C 0 0  71  92 111  00  00  00  175   81    0---...
  9C 0 0  82 101 141  00  00  00  175  109    0---...
 10C 0 0  51  91 206  00  00  00  139  123    0---...
 11C 0 0  81 122 235  00  00  00  211   67    0---...
 12C 0 0 112 131 151  00  00  00  247   81    0---...
 13C 0 0 121 142 181  00  00  00  247  109    0---...
 14C 0 0  91 132 225  00  00  00  211  123    0---...
 15C 2 0 121 161  00  00  00  00  283   67    0--....
 16C 0 0 151 171 335 345  00  00  319   81    0----..
 17C 2 0 161 181  00  00  00  00  319  109    0--....
 18C 1 0 131 171 375  00  00  00  283  123    0---...
 19O 1 0  45  00  00  00  00  00   67  151    0-.....
 20O 0 0 106  00  00  00  00  00  139  151    0-.....
 21O 0 0  76  00  00  00  00  00  139   39    0-.....
 22O 1 0 145  00  00  00  00  00  211  151    0-.....
 23O 1 0 115  00  00  00  00  00  211   39    0-.....
 24C 1 0 251 291 375  00  00  00  283  151    0---...
 25O 0 0 241 261  00  00  00  00  247  165    0--....
 26C 1 0 251 271 305  00  00  00  247  193    0---...
 27C 1 0 261 281 315  00  00  00  283  207    0---...
 28C 1 0 271 291 325  00  00  00  319  193    0---...
 29C 2 0 241 281  00  00  00  00  319  165    0--....
 30C 3 0 265  00  00  00  00  00  205  193    0-.....
 31O 1 0 275  00  00  00  00  00  283  235    0-.....
 32N 2 0 285  00  00  00  00  00  355  207    0-.....
 33O 1 0 165  00  00  00  00  00  340  105    0-.....
 34C 0 0 165 355 366  00  00  00  355   67    0---...
 35C 2 0 345 385  00  00  00  00  397   67    0--....
 36O 0 0 346  00  00  00  00  00  355   39    0-.....
 37O 0 0 185 245  00  00  00  00  319  137    0--....
 38I 0 0 355  00  00  00  00  00  418   91    0-.....
5       40  C27H27-NO12          1
  1C 1 0  22  61  00  00  00  00   67   67    0--....
  2C 1 0  12  31  00  00  00  00   31   81    0--....
  3C 1 0  21  42  00  00  00  00   31  109    0--....
  4C 0 0  32  51 195  00  00  00   67  123    0---...
  5C 0 0  41  62 101  00  00  00  103  109    0---...
  6C 0 0  11  52  71  00  00  00  103   81    0---...
  7C 0 0  61  81 216  00  00  00  139   67    0---...
  8C 0 0  71  92 111  00  00  00  175   81    0---...
  9C 0 0  82 101 141  00  00  00  175  109    0---...
 10C 0 0  51  91 206  00  00  00  139  123    0---...
 11C 0 0  81 122 235  00  00  00  211   67    0---...
 12C 0 0 112 131 151  00  00  00  247   81    0---...
 13C 0 0 121 142 181  00  00  00  247  109    0---...
 14C 0 0  91 132 225  00  00  00  211  123    0---...
 15C 2 0 121 161  00  00  00  00  283   67    0--....
 16C 0 0 151 171 335 345  00  00  319   81    0----..
 17C 2 0 161 181  00  00  00  00  319  109    0--....
 18C 1 0 131 171 375  00  00  00  283  123    0---...
 19O 1 0  45  00  00  00  00  00   67  151    0-.....
 20O 0 0 106  00  00  00  00  00  139  151    0-.....
 21O 0 0  76  00  00  00  00  00  139   39    0-.....
 22O 1 0 145  00  00  00  00  00  211  151    0-.....
 23O 1 0 115  00  00  00  00  00  211   39    0-.....
 24C 1 0 251 291 375  00  00  00  283  151    0---...
 25O 0 0 241 261  00  00  00  00  247  165    0--....
 26C 1 0 251 271 305  00  00  00  247  193    0---...
 27C 1 0 261 281 315  00  00  00  283  207    0---...
 28C 1 0 271 291 325  00  00  00  319  193    0---...
 29C 2 0 241 281  00  00  00  00  319  165    0--....
 30C 3 0 265  00  00  00  00  00  205  193    0-.....
 31O 1 0 275  00  00  00  00  00  283  235    0-.....
 32N 2 0 285  00  00  00  00  00  355  207    0-.....
 33O 1 0 165  00  00  00  00  00  340  105    0-.....
 34C 0 0 165 355 366  00  00  00  355   67    0---...
 35C 2 0 345 385  00  00  00  00  397   67    0--....
 36O 0 0 346  00  00  00  00  00  355   39    0-.....
 37O 0 0 185 245  00  00  00  00  319  137    0--....
 38O 0 0 355 395  00  00  00  00  418   91    0--....
 39C 1 0 385 406  00  00  00  00  454  105    0--....
 40O 0 0 396  00  00  00  00  00  454   77    0-.....
6       38  C26H27-NO11          1
  1C 1 0  22  61  00  00  00  00   67   67    0--....
  2C 1 0  12  31  00  00  00  00   31   81    0--....
  3C 1 0  21  42  00  00  00  00   31  109    0--....
  4C 0 0  32  51 195  00  00  00   67  123    0---...
  5C 0 0  41  62 101  00  00  00  103  109    0---...
  6C 0 0  11  52  71  00  00  00  103   81    0---...
  7C 0 0  61  81 216  00  00  00  139   67    0---...
  8C 0 0  71  92 111  00  00  00  175   81    0---...
  9C 0 0  82 101 141  00  00  00  175  109    0---...
 10C 0 0  51  91 206  00  00  00  139  123    0---...
 11C 0 0  81 122 235  00  00  00  211   67    0---...
 12C 0 0 112 131 151  00  00  00  247   81    0---...
 13C 0 0 121 142 181  00  00  00  247  109    0---...
 14C 0 0  91 132 225  00  00  00  211  123    0---...
 15C 2 0 121 161  00  00  00  00  283   67    0--....
 16C 0 0 151 171 335 345  00  00  319   81    0----..
 17C 2 0 161 181  00  00  00  00  319  109    0--....
 18C 1 0 131 171 375  00  00  00  283  123    0---...
 19O 1 0  45  00  00  00  00  00   67  151    0-.....
 20O 0 0 106  00  00  00  00  00  139  151    0-.....
 21O 0 0  76  00  00  00  00  00  139   39    0-.....
 22O 1 0 145  00  00  00  00  00  211  151    0-.....
 23O 1 0 115  00  00  00  00  00  211   39    0-.....
 24C 1 0 251 291 375  00  00  00  283  151    0---...
 25O 0 0 241 261  00  00  00  00  247  165    0--....
 26C 1 0 251 271 305  00  00  00  247  193    0---...
 27C 1 0 261 281 315  00  00  00  283  207    0---...
 28C 1 0 271 291 325  00  00  00  319  193    0---...
 29C 2 0 241 281  00  00  00  00  319  165    0--....
 30C 3 0 265  00  00  00  00  00  205  193    0-.....
 31O 1 0 275  00  00  00  00  00  283  235    0-.....
 32N 2 0 285  00  00  00  00  00  355  207    0-.....
 33O 1 0 165  00  00  00  00  00  340  105    0-.....
 34C 0 0 165 355 366  00  00  00  355   67    0---...
 35C 2 0 345 385  00  00  00  00  397   67    0--....
 36O 0 0 346  00  00  00  00  00  355   39    0-.....
 37O 0 0 185 245  00  00  00  00  319  137    0--....
 38O 1 0 355  00  00  00  00  00  418   91    0-.....
7       41  C28H29-NO12          1
  1C 1 0  22  61  00  00  00  00   67   67    0--....
  2C 1 0  12  31  00  00  00  00   31   81    0--....
  3C 1 0  21  42  00  00  00  00   31  109    0--....
  4C 0 0  32  51 195  00  00  00   67  123    0---...
  5C 0 0  41  62 101  00  00  00  103  109    0---...
  6C 0 0  11  52  71  00  00  00  103   81    0---...
  7C 0 0  61  81 216  00  00  00  139   67    0---...
  8C 0 0  71  92 111  00  00  00  175   81    0---...
  9C 0 0  82 101 141  00  00  00  175  109    0---...
 10C 0 0  51  91 206  00  00  00  139  123    0---...
 11C 0 0  81 122 235  00  00  00  211   67    0---...
 12C 0 0 112 131 151  00  00  00  247   81    0---...
 13C 0 0 121 142 181  00  00  00  247  109    0---...
 14C 0 0  91 132 225  00  00  00  211  123    0---...
 15C 2 0 121 161  00  00  00  00  283   67    0--....
 16C 0 0 151 171 335 345  00  00  319   81    0----..
 17C 2 0 161 181  00  00  00  00  319  109    0--....
 18C 1 0 131 171 375  00  00  00  283  123    0---...
 19O 1 0  45  00  00  00  00  00   67  151    0-.....
 20O 0 0 106  00  00  00  00  00  139  151    0-.....
 21O 0 0  76  00  00  00  00  00  139   39    0-.....
 22O 1 0 145  00  00  00  00  00  211  151    0-.....
 23O 1 0 115  00  00  00  00  00  211   39    0-.....
 24C 1 0 251 291 375  00  00  00  283  151    0---...
 25O 0 0 241 261  00  00  00  00  247  165    0--....
 26C 1 0 251 271 305  00  00  00  247  193    0---...
 27C 1 0 261 281 315  00  00  00  283  207    0---...
 28C 1 0 271 291 325  00  00  00  319  193    0---...
 29C 2 0 241 281  00  00  00  00  319  165    0--....
 30C 3 0 265  00  00  00  00  00  205  193    0-.....
 31O 1 0 275  00  00  00  00  00  283  235    0-.....
 32N 2 0 285  00  00  00  00  00  355  207    0-.....
 33O 1 0 165  00  00  00  00  00  340  105    0-.....
 34C 0 0 165 355 366  00  00  00  355   67    0---...
 35C 2 0 345 385  00  00  00  00  397   67    0--....
 36O 0 0 346  00  00  00  00  00  355   39    0-.....
 37O 0 0 185 245  00  00  00  00  319  137    0--....
 38O 0 0 355 395  00  00  00  00  418   91    0--....
 39C 0 0 385 406 415  00  00  00  454  105    0---...
 40O 0 0 396  00  00  00  00  00  454   77    0-.....
 41C 3 0 395  00  00  00  00  00  475  129    0-.....
8       47  C33H31-NO13          1
  1C 1 0  22  61  00  00  00  00   67   67    0--....
  2C 1 0  12  31  00  00  00  00   31   81    0--....
  3C 1 0  21  42  00  00  00  00   31  109    0--....
  4C 0 0  32  51 195  00  00  00   67  123    0---...
  5C 0 0  41  62 101  00  00  00  103  109    0---...
  6C 0 0  11  52  71  00  00  00  103   81    0---...
  7C 0 0  61  81 216  00  00  00  139   67    0---...
  8C 0 0  71  92 111  00  00  00  175   81    0---...
  9C 0 0  82 101 141  00  00  00  175  109    0---...
 10C 0 0  51  91 206  00  00  00  139  123    0---...
 11C 0 0  81 122 235  00  00  00  211   67    0---...
 12C 0 0 112 131 151  00  00  00  247   81    0---...
 13C 0 0 121 142 181  00  00  00  247  109    0---...
 14C 0 0  91 132 225  00  00  00  211  123    0---...
 15C 2 0 121 161  00  00  00  00  283   67    0--....
 16C 0 0 151 171 335 345  00  00  319   81    0----..
 17C 2 0 161 181  00  00  00  00  319  109    0--....
 18C 1 0 131 171 375  00  00  00  283  123    0---...
 19O 1 0  45  00  00  00  00  00   67  151    0-.....
 20O 0 0 106  00  00  00  00  00  139  151    0-.....
 21O 0 0  76  00  00  00  00  00  139   39    0-.....
 22O 1 0 145  00  00  00  00  00  211  151    0-.....
 23O 1 0 115  00  00  00  00  00  211   39    0-.....
 24C 1 0 251 291 375  00  00  00  283  151    0---...
 25O 0 0 241 261  00  00  00  00  247  165    0--....
 26C 1 0 251 271 305  00  00  00  247  193    0---...
 27C 1 0 261 281 315  00  00  00  283  207    0---...
 28C 1 0 271 291 325  00  00  00  319  193    0---...
 29C 2 0 241 281  00  00  00  00  319  165    0--....
 30C 3 0 265  00  00  00  00  00  205  193    0-.....
 31O 1 0 275  00  00  00  00  00  283  235    0-.....
 32N 2 0 285  00  00  00  00  00  355  207    0-.....
 33O 1 0 165  00  00  00  00  00  340  105    0-.....
 34C 0 0 165 355 366  00  00  00  355   67    0---...
 35C 2 0 345 385  00  00  00  00  397   67    0--....
 36O 0 0 346  00  00  00  00  00  355   39    0-.....
 37O 0 0 185 245  00  00  00  00  319  137    0--....
 38O 0 0 355 395  00  00  00  00  418   91    0--....
 39C 0 0 385 406 415  00  00  00  454  105    0---...
 40O 0 0 396  00  00  00  00  00  454   77    0-.....
 41C 0 0 395 422 461  00  00  00  475  129    0---...
 42C 0 0 412 431 475  00  00  00  439  143    0---...
 43C 1 0 421 442  00  00  00  00  439  171    0--....
 44C 1 0 432 451  00  00  00  00  475  185    0--....
 45C 1 0 441 462  00  00  00  00  511  171    0--....
 46C 1 0 452 411  00  00  00  00  511  143    0--....
 47O 1 0 425  00  00  00  00  00  397  143    0-.....
9       57  C43H51-NO13          1
  1C 1 0  22  61  00  00  00  00   67   67    0--....
  2C 1 0  12  31  00  00  00  00   31   81    0--....
  3C 1 0  21  42  00  00  00  00   31  109    0--....
  4C 0 0  32  51 195  00  00  00   67  123    0---...
  5C 0 0  41  62 101  00  00  00  103  109    0---...
  6C 0 0  11  52  71  00  00  00  103   81    0---...
  7C 0 0  61  81 216  00  00  00  139   67    0---...
  8C 0 0  71  92 111  00  00  00  175   81    0---...
  9C 0 0  82 101 141  00  00  00  175  109    0---...
 10C 0 0  51  91 206  00  00  00  139  123    0---...
 11C 0 0  81 122 235  00  00  00  211   67    0---...
 12C 0 0 112 131 151  00  00  00  247   81    0---...
 13C 0 0 121 142 181  00  00  00  247  109    0---...
 14C 0 0  91 132 225  00  00  00  211  123    0---...
 15C 2 0 121 161  00  00  00  00  283   67    0--....
 16C 0 0 151 171 335 345  00  00  319   81    0----..
 17C 2 0 161 181  00  00  00  00  319  109    0--....
 18C 1 0 131 171 375  00  00  00  283  123    0---...
 19O 1 0  45  00  00  00  00  00   67  151    0-.....
 20O 0 0 106  00  00  00  00  00  139  151    0-.....
 21O 0 0  76  00  00  00  00  00  139   39    0-.....
 22O 1 0 145  00  00  00  00  00  211  151    0-.....
 23O 1 0 115  00  00  00  00  00  211   39    0-.....
 24C 1 0 251 291 375  00  00  00  283  151    0---...
 25O 0 0 241 261  00  00  00  00  247  165    0--....
 26C 1 0 251 271 305  00  00  00  247  193    0---...
 27C 1 0 261 281 315  00  00  00  283  207    0---...
 28C 1 0 271 291 325  00  00  00  319  193    0---...
 29C 2 0 241 281  00  00  00  00  319  165    0--....
 30C 3 0 265  00  00  00  00  00  205  193    0-.....
 31O 1 0 275  00  00  00  00  00  283  235    0-.....
 32N 2 0 285  00  00  00  00  00  355  207    0-.....
 33O 1 0 165  00  00  00  00  00  340  105    0-.....
 34C 0 0 165 355 366  00  00  00  355   67    0---...
 35C 2 0 345 385  00  00  00  00  397   67    0--....
 36O 0 0 346  00  00  00  00  00  355   39    0-.....
 37O 0 0 185 245  00  00  00  00  319  137    0--....
 38O 0 0 355 395  00  00  00  00  418   91    0--....
 39C 0 0 385 406 415  00  00  00  454  105    0---...
 40O 0 0 396  00  00  00  00  00  454   77    0-.....
 41C 2 0 395 425  00  00  00  00  418  119    0--....
 42C 2 0 415 435  00  00  00  00  454  133    0--....
 43C 0 0 425 442 481  00  00  00  454  161    0---...
 44C 1 0 432 451  00  00  00  00  418  175    0--....
 45C 0 0 441 462 535  00  00  00  418  203    0---...
 46C 0 0 452 471 575  00  00  00  454  217    0---...
 47C 0 0 461 482 495  00  00  00  490  203    0---...
 48C 1 0 472 431  00  00  00  00  490  175    0--....
 49C 0 0 475 505 515 525  00  00  490  231    0----..
 50C 3 0 495  00  00  00  00  00  511  207    0-.....
 51C 3 0 495  00  00  00  00  00  469  255    0-.....
 52C 3 0 495  00  00  00  00  00  511  255    0-.....
 53C 0 0 455 545 555 565  00  00  397  227    0----..
 54C 3 0 535  00  00  00  00  00  355  227    0-.....
 55C 3 0 535  00  00  00  00  00  376  251    0-.....
 56C 3 0 535  00  00  00  00  00  397  255    0-.....
 57O 1 0 465  00  00  00  00  00  433  241    0-.....
10      42  C29H29-N3O10         1
  1C 1 0  22  61  00  00  00  00   67   67    0--....
  2C 1 0  12  31  00  00  00  00   31   81    0--....
  3C 1 0  21  42  00  00  00  00   31  109    0--....
  4C 0 0  32  51 195  00  00  00   67  123    0---...
  5C 0 0  41  62 101  00  00  00  103  109    0---...
  6C 0 0  11  52  71  00  00  00  103   81    0---...
  7C 0 0  61  81 216  00  00  00  139   67    0---...
  8C 0 0  71  92 111  00  00  00  175   81    0---...
  9C 0 0  82 101 141  00  00  00  175  109    0---...
 10C 0 0  51  91 206  00  00  00  139  123    0---...
 11C 0 0  81 122 235  00  00  00  211   67    0---...
 12C 0 0 112 131 151  00  00  00  247   81    0---...
 13C 0 0 121 142 181  00  00  00  247  109    0---...
 14C 0 0  91 132 225  00  00  00  211  123    0---...
 15C 2 0 121 161  00  00  00  00  283   67    0--....
 16C 0 0 151 171 335 345  00  00  319   81    0----..
 17C 2 0 161 181  00  00  00  00  319  109    0--....
 18C 1 0 131 171 375  00  00  00  283  123    0---...
 19O 1 0  45  00  00  00  00  00   67  151    0-.....
 20O 0 0 106  00  00  00  00  00  139  151    0-.....
 21O 0 0  76  00  00  00  00  00  139   39    0-.....
 22O 1 0 145  00  00  00  00  00  211  151    0-.....
 23O 1 0 115  00  00  00  00  00  211   39    0-.....
 24C 1 0 251 291 375  00  00  00  283  151    0---...
 25O 0 0 241 261  00  00  00  00  247  165    0--....
 26C 1 0 251 271 305  00  00  00  247  193    0---...
 27C 1 0 261 281 315  00  00  00  283  207    0---...
 28C 1 0 271 291 325  00  00  00  319  193    0---...
 29C 2 0 241 281  00  00  00  00  319  165    0--....
 30C 3 0 265  00  00  00  00  00  205  193    0-.....
 31O 1 0 275  00  00  00  00  00  283  235    0-.....
 32N 2 0 285  00  00  00  00  00  355  207    0-.....
 33O 1 0 165  00  00  00  00  00  340  105    0-.....
 34C 0 0 165 355 366  00  00  00  355   67    0---...
 35C 2 0 345 385  00  00  00  00  397   67    0--....
 36O 0 0 346  00  00  00  00  00  355   39    0-.....
 37O 0 0 185 245  00  00  00  00  319  137    0--....
 38N 0 0 355 391 421  00  00  00  418   91    0---...
 39C 1 0 381 402  00  00  00  00  397  115    0--....
 40N 0 0 392 411  00  00  00  00  418  139    0--....
 41C 1 0 401 422  00  00  00  00  454  125    0--....
 42C 1 0 412 381  00  00  00  00  454   97    0--....
11      44  C30H30-N2O12         1
  1C 1 0  22  61  00  00  00  00   67   67    0--....
  2C 1 0  12  31  00  00  00  00   31   81    0--....
  3C 1 0  21  42  00  00  00  00   31  109    0--....
  4C 0 0  32  51 195  00  00  00   67  123    0---...
  5C 0 0  41  62 101  00  00  00  103  109    0---...
  6C 0 0  11  52  71  00  00  00  103   81    0---...
  7C 0 0  61  81 216  00  00  00  139   67    0---...
  8C 0 0  71  92 111  00  00  00  175   81    0---...
  9C 0 0  82 101 141  00  00  00  175  109    0---...
 10C 0 0  51  91 206  00  00  00  139  123    0---...
 11C 0 0  81 122 235  00  00  00  211   67    0---...
 12C 0 0 112 131 151  00  00  00  247   81    0---...
 13C 0 0 121 142 181  00  00  00  247  109    0---...
 14C 0 0  91 132 225  00  00  00  211  123    0---...
 15C 2 0 121 161  00  00  00  00  283   67    0--....
 16C 0 0 151 171 335 345  00  00  319   81    0----..
 17C 2 0 161 181  00  00  00  00  319  109    0--....
 18C 1 0 131 171 375  00  00  00  283  123    0---...
 19O 1 0  45  00  00  00  00  00   67  151    0-.....
 20O 0 0 106  00  00  00  00  00  139  151    0-.....
 21O 0 0  76  00  00  00  00  00  139   39    0-.....
 22O 1 0 145  00  00  00  00  00  211  151    0-.....
 23O 1 0 115  00  00  00  00  00  211   39    0-.....
 24C 1 0 251 291 375  00  00  00  283  151    0---...
 25O 0 0 241 261  00  00  00  00  247  165    0--....
 26C 1 0 251 271 305  00  00  00  247  193    0---...
 27C 1 0 261 281 315  00  00  00  283  207    0---...
 28C 1 0 271 291 325  00  00  00  319  193    0---...
 29C 2 0 241 281  00  00  00  00  319  165    0--....
 30C 3 0 265  00  00  00  00  00  205  193    0-.....
 31O 1 0 275  00  00  00  00  00  283  235    0-.....
 32N 2 0 285  00  00  00  00  00  355  207    0-.....
 33O 1 0 165  00  00  00  00  00  340  105    0-.....
 34C 0 0 165 355 366  00  00  00  355   67    0---...
 35C 2 0 345 385  00  00  00  00  397   67    0--....
 36O 0 0 346  00  00  00  00  00  355   39    0-.....
 37O 0 0 185 245  00  00  00  00  319  137    0--....
 38N 0 0 355 391 421  00  00  00  418   91    0---...
 39C 0 0 381 401 436  00  00  00  397  115    0---...
 40C 2 0 391 411  00  00  00  00  397  143    0--....
 41C 2 0 401 421  00  00  00  00  439  143    0--....
 42C 0 0 411 381 446  00  00  00  439  115    0---...
 43O 0 0 396  00  00  00  00  00  376   91    0-.....
 44O 0 0 426  00  00  00  00  00  460   91    0-.....
12      37  C26H29-NO10          1
  1C 1 0  22  61  00  00  00  00   67   67    0--....
  2C 1 0  12  31  00  00  00  00   31   81    0--....
  3C 1 0  21  42  00  00  00  00   31  109    0--....
  4C 0 0  32  51 195  00  00  00   67  123    0---...
  5C 0 0  41  62 101  00  00  00  103  109    0---...
  6C 0 0  11  52  71  00  00  00  103   81    0---...
  7C 0 0  61  81 216  00  00  00  139   67    0---...
  8C 0 0  71  92 111  00  00  00  175   81    0---...
  9C 0 0  82 101 141  00  00  00  175  109    0---...
 10C 0 0  51  91 206  00  00  00  139  123    0---...
 11C 0 0  81 122 235  00  00  00  211   67    0---...
 12C 0 0 112 131 151  00  00  00  247   81    0---...
 13C 0 0 121 142 181  00  00  00  247  109    0---...
 14C 0 0  91 132 225  00  00  00  211  123    0---...
 15C 2 0 121 161  00  00  00  00  283   67    0--....
 16C 0 0 151 171 335 345  00  00  319   81    0----..
 17C 2 0 161 181  00  00  00  00  319  109    0--....
 18C 1 0 131 171 375  00  00  00  283  123    0---...
 19O 1 0  45  00  00  00  00  00   67  151    0-.....
 20O 0 0 106  00  00  00  00  00  139  151    0-.....
 21O 0 0  76  00  00  00  00  00  139   39    0-.....
 22O 1 0 145  00  00  00  00  00  211  151    0-.....
 23O 1 0 115  00  00  00  00  00  211   39    0-.....
 24C 1 0 251 291 375  00  00  00  283  151    0---...
 25O 0 0 241 261  00  00  00  00  247  165    0--....
 26C 1 0 251 271 305  00  00  00  247  193    0---...
 27C 1 0 261 281 315  00  00  00  283  207    0---...
 28C 1 0 271 291 325  00  00  00  319  193    0---...
 29C 2 0 241 281  00  00  00  00  319  165    0--....
 30C 3 0 265  00  00  00  00  00  205  193    0-.....
 31O 1 0 275  00  00  00  00  00  283  235    0-.....
 32N 2 0 285  00  00  00  00  00  355  207    0-.....
 33O 1 0 165  00  00  00  00  00  340  105    0-.....
 34C 1 0 165 355 365  00  00  00  355   67    0---...
 35C 3 0 345  00  00  00  00  00  397   67    0-.....
 36O 1 0 345  00  00  00  00  00  355   39    0-.....
 37O 0 0 185 245  00  00  00  00  319  137    0--....
13      46  C33H33-N3O10         1
  1C 1 0  22  61  00  00  00  00   67   67    0--....
  2C 1 0  12  31  00  00  00  00   31   81    0--....
  3C 1 0  21  42  00  00  00  00   31  109    0--....
  4C 0 0  32  51 195  00  00  00   67  123    0---...
  5C 0 0  41  62 101  00  00  00  103  109    0---...
  6C 0 0  11  52  71  00  00  00  103   81    0---...
  7C 0 0  61  81 216  00  00  00  139   67    0---...
  8C 0 0  71  92 111  00  00  00  175   81    0---...
  9C 0 0  82 101 141  00  00  00  175  109    0---...
 10C 0 0  51  91 206  00  00  00  139  123    0---...
 11C 0 0  81 122 235  00  00  00  211   67    0---...
 12C 0 0 112 131 151  00  00  00  247   81    0---...
 13C 0 0 121 142 181  00  00  00  247  109    0---...
 14C 0 0  91 132 225  00  00  00  211  123    0---...
 15C 2 0 121 161  00  00  00  00  283   67    0--....
 16C 0 0 151 171 335 345  00  00  319   81    0----..
 17C 2 0 161 181  00  00  00  00  319  109    0--....
 18C 1 0 131 171 375  00  00  00  283  123    0---...
 19O 1 0  45  00  00  00  00  00   67  151    0-.....
 20O 0 0 106  00  00  00  00  00  139  151    0-.....
 21O 0 0  76  00  00  00  00  00  139   39    0-.....
 22O 1 0 145  00  00  00  00  00  211  151    0-.....
 23O 1 0 115  00  00  00  00  00  211   39    0-.....
 24C 1 0 251 291 375  00  00  00  283  151    0---...
 25O 0 0 241 261  00  00  00  00  247  165    0--....
 26C 1 0 251 271 305  00  00  00  247  193    0---...
 27C 1 0 261 281 315  00  00  00  283  207    0---...
 28C 1 0 271 291 325  00  00  00  319  193    0---...
 29C 2 0 241 281  00  00  00  00  319  165    0--....
 30C 3 0 265  00  00  00  00  00  205  193    0-.....
 31O 1 0 275  00  00  00  00  00  283  235    0-.....
 32N 2 0 285  00  00  00  00  00  355  207    0-.....
 33O 1 0 165  00  00  00  00  00  340  105    0-.....
 34C 0 0 165 355 366  00  00  00  355   67    0---...
 35C 3 0 345  00  00  00  00  00  397   67    0-.....
 36N 0 0 346 385  00  00  00  00  355   39    0--....
 37O 0 0 185 245  00  00  00  00  319  137    0--....
 38N 1 0 365 395  00  00  00  00  397   39    0--....
 39C 0 0 385 405 466  00  00  00  433   53    0---...
 40C 0 0 395 412 451  00  00  00  433   81    0---...
 41C 1 0 402 421  00  00  00  00  397   95    0--....
 42C 1 0 411 432  00  00  00  00  397  123    0--....
 43C 1 0 422 441  00  00  00  00  433  137    0--....
 44C 1 0 431 452  00  00  00  00  469  123    0--....
 45C 1 0 442 401  00  00  00  00  469   95    0--....
 46O 0 0 396  00  00  00  00  00  469   39    0-.....
14      45  C31H37-N3O11         1
  1C 1 0  22  61  00  00  00  00   67   67    0--....
  2C 1 0  12  31  00  00  00  00   31   81    0--....
  3C 1 0  21  42  00  00  00  00   31  109    0--....
  4C 0 0  32  51 195  00  00  00   67  123    0---...
  5C 0 0  41  62 101  00  00  00  103  109    0---...
  6C 0 0  11  52  71  00  00  00  103   81    0---...
  7C 0 0  61  81 216  00  00  00  139   67    0---...
  8C 0 0  71  92 111  00  00  00  175   81    0---...
  9C 0 0  82 101 141  00  00  00  175  109    0---...
 10C 0 0  51  91 206  00  00  00  139  123    0---...
 11C 0 0  81 122 235  00  00  00  211   67    0---...
 12C 0 0 112 131 151  00  00  00  247   81    0---...
 13C 0 0 121 142 181  00  00  00  247  109    0---...
 14C 0 0  91 132 225  00  00  00  211  123    0---...
 15C 2 0 121 161  00  00  00  00  283   67    0--....
 16C 0 0 151 171 335 345  00  00  319   81    0----..
 17C 2 0 161 181  00  00  00  00  319  109    0--....
 18C 1 0 131 171 375  00  00  00  283  123    0---...
 19O 1 0  45  00  00  00  00  00   67  151    0-.....
 20O 0 0 106  00  00  00  00  00  139  151    0-.....
 21O 0 0  76  00  00  00  00  00  139   39    0-.....
 22O 1 0 145  00  00  00  00  00  211  151    0-.....
 23O 1 0 115  00  00  00  00  00  211   39    0-.....
 24C 1 0 251 291 375  00  00  00  283  151    0---...
 25O 0 0 241 261  00  00  00  00  247  165    0--....
 26C 1 0 251 271 305  00  00  00  247  193    0---...
 27C 1 0 261 281 315  00  00  00  283  207    0---...
 28C 1 0 271 291 325  00  00  00  319  193    0---...
 29C 2 0 241 281  00  00  00  00  319  165    0--....
 30C 3 0 265  00  00  00  00  00  205  193    0-.....
 31O 1 0 275  00  00  00  00  00  283  235    0-.....
 32N 2 0 285  00  00  00  00  00  355  207    0-.....
 33O 1 0 165  00  00  00  00  00  340  105    0-.....
 34C 0 0 165 355 366  00  00  00  355   67    0---...
 35C 3 0 345  00  00  00  00  00  397   67    0-.....
 36N 0 0 346 385  00  00  00  00  355   39    0--....
 37O 0 0 185 245  00  00  00  00  319  137    0--....
 38N 1 0 365 395  00  00  00  00  397   39    0--....
 39C 0 0 385 406 415  00  00  00  433   53    0---...
 40O 0 0 396  00  00  00  00  00  475   53    0-.....
 41O 0 0 395 425  00  00  00  00  433   81    0--....
 42C 0 0 415 435 445 455  00  00  454  105    0----..
 43C 3 0 425  00  00  00  00  00  418  119    0-.....
 44C 3 0 425  00  00  00  00  00  454  133    0-.....
 45C 3 0 425  00  00  00  00  00  490  119    0-.....
15      44  C31H38-N4O9          1
  1C 1 0  22  61  00  00  00  00   67   67    0--....
  2C 1 0  12  31  00  00  00  00   31   81    0--....
  3C 1 0  21  42  00  00  00  00   31  109    0--....
  4C 0 0  32  51 195  00  00  00   67  123    0---...
  5C 0 0  41  62 101  00  00  00  103  109    0---...
  6C 0 0  11  52  71  00  00  00  103   81    0---...
  7C 0 0  61  81 216  00  00  00  139   67    0---...
  8C 0 0  71  92 111  00  00  00  175   81    0---...
  9C 0 0  82 101 141  00  00  00  175  109    0---...
 10C 0 0  51  91 206  00  00  00  139  123    0---...
 11C 0 0  81 122 235  00  00  00  211   67    0---...
 12C 0 0 112 131 151  00  00  00  247   81    0---...
 13C 0 0 121 142 181  00  00  00  247  109    0---...
 14C 0 0  91 132 225  00  00  00  211  123    0---...
 15C 2 0 121 161  00  00  00  00  283   67    0--....
 16C 0 0 151 171 335 345  00  00  319   81    0----..
 17C 2 0 161 181  00  00  00  00  319  109    0--....
 18C 1 0 131 171 375  00  00  00  283  123    0---...
 19O 1 0  45  00  00  00  00  00   67  151    0-.....
 20O 0 0 106  00  00  00  00  00  139  151    0-.....
 21O 0 0  76  00  00  00  00  00  139   39    0-.....
 22O 1 0 145  00  00  00  00  00  211  151    0-.....
 23O 1 0 115  00  00  00  00  00  211   39    0-.....
 24C 1 0 251 291 375  00  00  00  283  151    0---...
 25O 0 0 241 261  00  00  00  00  247  165    0--....
 26C 1 0 251 271 305  00  00  00  247  193    0---...
 27C 1 0 261 281 315  00  00  00  283  207    0---...
 28C 1 0 271 291 325  00  00  00  319  193    0---...
 29C 2 0 241 281  00  00  00  00  319  165    0--....
 30C 3 0 265  00  00  00  00  00  205  193    0-.....
 31O 1 0 275  00  00  00  00  00  283  235    0-.....
 32N 2 0 285  00  00  00  00  00  355  207    0-.....
 33O 1 0 165  00  00  00  00  00  340  105    0-.....
 34C 0 0 165 355 366  00  00  00  355   67    0---...
 35C 3 0 345  00  00  00  00  00  397   67    0-.....
 36N 0 0 346 385  00  00  00  00  355   39    0--....
 37O 0 0 185 245  00  00  00  00  319  137    0--....
 38N 0 0 365 391 431  00  00  00  397   39    0---...
 39C 2 0 381 401  00  00  00  00  418   63    0--....
 40C 2 0 391 411  00  00  00  00  460   63    0--....
 41N 0 0 401 421 445  00  00  00  481   39    0---...
 42C 2 0 411 431  00  00  00  00  460   15    0--....
 43C 2 0 421 381  00  00  00  00  418   15    0--....
 44C 3 0 415  00  00  00  00  00  517   25    0-.....
16      43  C31H35-N3O9          1
  1C 1 0  22  61  00  00  00  00   67   67    0--....
  2C 1 0  12  31  00  00  00  00   31   81    0--....
  3C 1 0  21  42  00  00  00  00   31  109    0--....
  4C 0 0  32  51 195  00  00  00   67  123    0---...
  5C 0 0  41  62 101  00  00  00  103  109    0---...
  6C 0 0  11  52  71  00  00  00  103   81    0---...
  7C 0 0  61  81 216  00  00  00  139   67    0---...
  8C 0 0  71  92 111  00  00  00  175   81    0---...
  9C 0 0  82 101 141  00  00  00  175  109    0---...
 10C 0 0  51  91 206  00  00  00  139  123    0---...
 11C 0 0  81 122 235  00  00  00  211   67    0---...
 12C 0 0 112 131 151  00  00  00  247   81    0---...
 13C 0 0 121 142 181  00  00  00  247  109    0---...
 14C 0 0  91 132 225  00  00  00  211  123    0---...
 15C 2 0 121 161  00  00  00  00  283   67    0--....
 16C 0 0 151 171 335 345  00  00  319   81    0----..
 17C 2 0 161 181  00  00  00  00  319  109    0--....
 18C 1 0 131 171 375  00  00  00  283  123    0---...
 19O 1 0  45  00  00  00  00  00   67  151    0-.....
 20O 0 0 106  00  00  00  00  00  139  151    0-.....
 21O 0 0  76  00  00  00  00  00  139   39    0-.....
 22O 1 0 145  00  00  00  00  00  211  151    0-.....
 23O 1 0 115  00  00  00  00  00  211   39    0-.....
 24C 1 0 251 291 375  00  00  00  283  151    0---...
 25O 0 0 241 261  00  00  00  00  247  165    0--....
 26C 1 0 251 271 305  00  00  00  247  193    0---...
 27C 1 0 261 281 315  00  00  00  283  207    0---...
 28C 1 0 271 291 325  00  00  00  319  193    0---...
 29C 2 0 241 281  00  00  00  00  319  165    0--....
 30C 3 0 265  00  00  00  00  00  205  193    0-.....
 31O 1 0 275  00  00  00  00  00  283  235    0-.....
 32N 2 0 285  00  00  00  00  00  355  207    0-.....
 33O 1 0 165  00  00  00  00  00  340  105    0-.....
 34C 0 0 165 355 366  00  00  00  355   67    0---...
 35C 3 0 345  00  00  00  00  00  397   67    0-.....
 36N 0 0 346 385  00  00  00  00  355   39    0--....
 37O 0 0 185 245  00  00  00  00  319  137    0--....
 38N 0 0 365 396  00  00  00  00  397   39    0--....
 39C 0 0 386 401 431  00  00  00  433   53    0---...
 40C 2 0 391 411  00  00  00  00  412   77    0--....
 41C 2 0 401 421  00  00  00  00  412  105    0--....
 42C 2 0 411 431  00  00  00  00  454  105    0--....
 43C 2 0 421 391  00  00  00  00  454   77    0--....
17      48  C36H41-N3O9          1
  1C 1 0  22  61  00  00  00  00   67   67    0--....
  2C 1 0  12  31  00  00  00  00   31   81    0--....
  3C 1 0  21  42  00  00  00  00   31  109    0--....
  4C 0 0  32  51 195  00  00  00   67  123    0---...
  5C 0 0  41  62 101  00  00  00  103  109    0---...
  6C 0 0  11  52  71  00  00  00  103   81    0---...
  7C 0 0  61  81 216  00  00  00  139   67    0---...
  8C 0 0  71  92 111  00  00  00  175   81    0---...
  9C 0 0  82 101 141  00  00  00  175  109    0---...
 10C 0 0  51  91 206  00  00  00  139  123    0---...
 11C 0 0  81 122 235  00  00  00  211   67    0---...
 12C 0 0 112 131 151  00  00  00  247   81    0---...
 13C 0 0 121 142 181  00  00  00  247  109    0---...
 14C 0 0  91 132 225  00  00  00  211  123    0---...
 15C 2 0 121 161  00  00  00  00  283   67    0--....
 16C 0 0 151 171 335 345  00  00  319   81    0----..
 17C 2 0 161 181  00  00  00  00  319  109    0--....
 18C 1 0 131 171 375  00  00  00  283  123    0---...
 19O 1 0  45  00  00  00  00  00   67  151    0-.....
 20O 0 0 106  00  00  00  00  00  139  151    0-.....
 21O 0 0  76  00  00  00  00  00  139   39    0-.....
 22O 1 0 145  00  00  00  00  00  211  151    0-.....
 23O 1 0 115  00  00  00  00  00  211   39    0-.....
 24C 1 0 251 291 375  00  00  00  283  151    0---...
 25O 0 0 241 261  00  00  00  00  247  165    0--....
 26C 1 0 251 271 305  00  00  00  247  193    0---...
 27C 1 0 261 281 315  00  00  00  283  207    0---...
 28C 1 0 271 291 325  00  00  00  319  193    0---...
 29C 2 0 241 281  00  00  00  00  319  165    0--....
 30C 3 0 265  00  00  00  00  00  205  193    0-.....
 31O 1 0 275  00  00  00  00  00  283  235    0-.....
 32N 2 0 285  00  00  00  00  00  355  207    0-.....
 33O 1 0 165  00  00  00  00  00  340  105    0-.....
 34C 0 0 165 355 366  00  00  00  355   67    0---...
 35C 3 0 345  00  00  00  00  00  397   67    0-.....
 36N 0 0 346 385  00  00  00  00  355   39    0--....
 37O 0 0 185 245  00  00  00  00  319  137    0--....
 38N 0 0 365 396  00  00  00  00  397   39    0--....
 39C 0 0 386 401 451  00  00  00  433   53    0---...
 40C 1 0 391 411 421  00  00  00  454   29    0---...
 41C 2 0 401 441  00  00  00  00  475   53    0--....
 42C 2 0 401 431  00  00  00  00  496   29    0--....
 43C 1 0 421 471 481  00  00  00  496   57    0---...
 44C 1 0 411 461 471  00  00  00  475   81    0---...
 45C 1 0 391 461 481  00  00  00  433   81    0---...
 46C 2 0 451 441  00  00  00  00  412  105    0--....
 47C 2 0 431 441  00  00  00  00  517   81    0--....
 48C 2 0 451 431  00  00  00  00  469   95    0--....
18      39  C27H27-NO11          1
  1C 1 0  22  61  00  00  00  00   67   67    0--....
  2C 1 0  12  31  00  00  00  00   31   81    0--....
  3C 1 0  21  42  00  00  00  00   31  109    0--....
  4C 0 0  32  51 195  00  00  00   67  123    0---...
  5C 0 0  41  62 101  00  00  00  103  109    0---...
  6C 0 0  11  52  71  00  00  00  103   81    0---...
  7C 0 0  61  81 216  00  00  00  139   67    0---...
  8C 0 0  71  92 111  00  00  00  175   81    0---...
  9C 0 0  82 101 141  00  00  00  175  109    0---...
 10C 0 0  51  91 206  00  00  00  139  123    0---...
 11C 0 0  81 122 235  00  00  00  211   67    0---...
 12C 0 0 112 131 151  00  00  00  247   81    0---...
 13C 0 0 121 142 181  00  00  00  247  109    0---...
 14C 0 0  91 132 225  00  00  00  211  123    0---...
 15C 2 0 121 161  00  00  00  00  283   67    0--....
 16C 0 0 151 171 335 345  00  00  319   81    0----..
 17C 2 0 161 181  00  00  00  00  319  109    0--....
 18C 1 0 131 171 375  00  00  00  283  123    0---...
 19O 1 0  45  00  00  00  00  00   67  151    0-.....
 20O 0 0 106  00  00  00  00  00  139  151    0-.....
 21O 0 0  76  00  00  00  00  00  139   39    0-.....
 22O 1 0 145  00  00  00  00  00  211  151    0-.....
 23O 1 0 115  00  00  00  00  00  211   39    0-.....
 24C 1 0 251 291 375  00  00  00  283  151    0---...
 25O 0 0 241 261  00  00  00  00  247  165    0--....
 26C 1 0 251 271 305  00  00  00  247  193    0---...
 27C 1 0 261 281 315  00  00  00  283  207    0---...
 28C 1 0 271 291 325  00  00  00  319  193    0---...
 29C 2 0 241 281  00  00  00  00  319  165    0--....
 30C 3 0 265  00  00  00  00  00  205  193    0-.....
 31O 1 0 275  00  00  00  00  00  283  235    0-.....
 32N 1 0 285 385  00  00  00  00  355  207    0--....
 33O 1 0 165  00  00  00  00  00  340  105    0-.....
 34C 0 0 165 355 366  00  00  00  355   67    0---...
 35C 3 0 345  00  00  00  00  00  397   67    0-.....
 36O 0 0 346  00  00  00  00  00  355   39    0-.....
 37O 0 0 185 245  00  00  00  00  319  137    0--....
 38C 1 0 325 396  00  00  00  00  397  207    0--....
 39O 0 0 386  00  00  00  00  00  397  235    0-.....
19      40  C28H29-NO11          1
  1C 1 0  22  61  00  00  00  00   67   67    0--....
  2C 1 0  12  31  00  00  00  00   31   81    0--....
  3C 1 0  21  42  00  00  00  00   31  109    0--....
  4C 0 0  32  51 195  00  00  00   67  123    0---...
  5C 0 0  41  62 101  00  00  00  103  109    0---...
  6C 0 0  11  52  71  00  00  00  103   81    0---...
  7C 0 0  61  81 216  00  00  00  139   67    0---...
  8C 0 0  71  92 111  00  00  00  175   81    0---...
  9C 0 0  82 101 141  00  00  00  175  109    0---...
 10C 0 0  51  91 206  00  00  00  139  123    0---...
 11C 0 0  81 122 235  00  00  00  211   67    0---...
 12C 0 0 112 131 151  00  00  00  247   81    0---...
 13C 0 0 121 142 181  00  00  00  247  109    0---...
 14C 0 0  91 132 225  00  00  00  211  123    0---...
 15C 2 0 121 161  00  00  00  00  283   67    0--....
 16C 0 0 151 171 335 345  00  00  319   81    0----..
 17C 2 0 161 181  00  00  00  00  319  109    0--....
 18C 1 0 131 171 375  00  00  00  283  123    0---...
 19O 1 0  45  00  00  00  00  00   67  151    0-.....
 20O 0 0 106  00  00  00  00  00  139  151    0-.....
 21O 0 0  76  00  00  00  00  00  139   39    0-.....
 22O 1 0 145  00  00  00  00  00  211  151    0-.....
 23O 1 0 115  00  00  00  00  00  211   39    0-.....
 24C 1 0 251 291 375  00  00  00  283  151    0---...
 25O 0 0 241 261  00  00  00  00  247  165    0--....
 26C 1 0 251 271 305  00  00  00  247  193    0---...
 27C 1 0 261 281 315  00  00  00  283  207    0---...
 28C 1 0 271 291 325  00  00  00  319  193    0---...
 29C 2 0 241 281  00  00  00  00  319  165    0--....
 30C 3 0 265  00  00  00  00  00  205  193    0-.....
 31O 1 0 275  00  00  00  00  00  283  235    0-.....
 32N 1 0 285 385  00  00  00  00  355  207    0--....
 33O 1 0 165  00  00  00  00  00  340  105    0-.....
 34C 0 0 165 355 366  00  00  00  355   67    0---...
 35C 3 0 345  00  00  00  00  00  397   67    0-.....
 36O 0 0 346  00  00  00  00  00  355   39    0-.....
 37O 0 0 185 245  00  00  00  00  319  137    0--....
 38C 0 0 325 396 405  00  00  00  397  207    0---...
 39O 0 0 386  00  00  00  00  00  397  235    0-.....
 40C 3 0 385  00  00  00  00  00  433  193    0-.....
20      42  C29H32-N2O11         1
  1C 1 0  22  61  00  00  00  00   67   67    0--....
  2C 1 0  12  31  00  00  00  00   31   81    0--....
  3C 1 0  21  42  00  00  00  00   31  109    0--....
  4C 0 0  32  51 195  00  00  00   67  123    0---...
  5C 0 0  41  62 101  00  00  00  103  109    0---...
  6C 0 0  11  52  71  00  00  00  103   81    0---...
  7C 0 0  61  81 216  00  00  00  139   67    0---...
  8C 0 0  71  92 111  00  00  00  175   81    0---...
  9C 0 0  82 101 141  00  00  00  175  109    0---...
 10C 0 0  51  91 206  00  00  00  139  123    0---...
 11C 0 0  81 122 235  00  00  00  211   67    0---...
 12C 0 0 112 131 151  00  00  00  247   81    0---...
 13C 0 0 121 142 181  00  00  00  247  109    0---...
 14C 0 0  91 132 225  00  00  00  211  123    0---...
 15C 2 0 121 161  00  00  00  00  283   67    0--....
 16C 0 0 151 171 335 345  00  00  319   81    0----..
 17C 2 0 161 181  00  00  00  00  319  109    0--....
 18C 1 0 131 171 375  00  00  00  283  123    0---...
 19O 1 0  45  00  00  00  00  00   67  151    0-.....
 20O 0 0 106  00  00  00  00  00  139  151    0-.....
 21O 0 0  76  00  00  00  00  00  139   39    0-.....
 22O 1 0 145  00  00  00  00  00  211  151    0-.....
 23O 1 0 115  00  00  00  00  00  211   39    0-.....
 24C 1 0 251 291 375  00  00  00  283  151    0---...
 25O 0 0 241 261  00  00  00  00  247  165    0--....
 26C 1 0 251 271 305  00  00  00  247  193    0---...
 27C 1 0 261 281 315  00  00  00  283  207    0---...
 28C 1 0 271 291 325  00  00  00  319  193    0---...
 29C 2 0 241 281  00  00  00  00  319  165    0--....
 30C 3 0 265  00  00  00  00  00  205  193    0-.....
 31O 1 0 275  00  00  00  00  00  283  235    0-.....
 32N 1 0 285 385  00  00  00  00  355  207    0--....
 33O 1 0 165  00  00  00  00  00  340  105    0-.....
 34C 0 0 165 355 366  00  00  00  355   67    0---...
 35C 3 0 345  00  00  00  00  00  397   67    0-.....
 36O 0 0 346  00  00  00  00  00  355   39    0-.....
 37O 0 0 185 245  00  00  00  00  319  137    0--....
 38C 0 0 325 396 405  00  00  00  397  207    0---...
 39O 0 0 386  00  00  00  00  00  397  235    0-.....
 40C 1 0 385 415 425  00  00  00  433  193    0---...
 41N 2 0 405  00  00  00  00  00  454  217    0-.....
 42C 3 0 405  00  00  00  00  00  412  169    0-.....
21      48  C35H36-N2O11         1
  1C 1 0  22  61  00  00  00  00   67   67    0--....
  2C 1 0  12  31  00  00  00  00   31   81    0--....
  3C 1 0  21  42  00  00  00  00   31  109    0--....
  4C 0 0  32  51 195  00  00  00   67  123    0---...
  5C 0 0  41  62 101  00  00  00  103  109    0---...
  6C 0 0  11  52  71  00  00  00  103   81    0---...
  7C 0 0  61  81 216  00  00  00  139   67    0---...
  8C 0 0  71  92 111  00  00  00  175   81    0---...
  9C 0 0  82 101 141  00  00  00  175  109    0---...
 10C 0 0  51  91 206  00  00  00  139  123    0---...
 11C 0 0  81 122 235  00  00  00  211   67    0---...
 12C 0 0 112 131 151  00  00  00  247   81    0---...
 13C 0 0 121 142 181  00  00  00  247  109    0---...
 14C 0 0  91 132 225  00  00  00  211  123    0---...
 15C 2 0 121 161  00  00  00  00  283   67    0--....
 16C 0 0 151 171 335 345  00  00  319   81    0----..
 17C 2 0 161 181  00  00  00  00  319  109    0--....
 18C 1 0 131 171 375  00  00  00  283  123    0---...
 19O 1 0  45  00  00  00  00  00   67  151    0-.....
 20O 0 0 106  00  00  00  00  00  139  151    0-.....
 21O 0 0  76  00  00  00  00  00  139   39    0-.....
 22O 1 0 145  00  00  00  00  00  211  151    0-.....
 23O 1 0 115  00  00  00  00  00  211   39    0-.....
 24C 1 0 251 291 375  00  00  00  283  151    0---...
 25O 0 0 241 261  00  00  00  00  247  165    0--....
 26C 1 0 251 271 305  00  00  00  247  193    0---...
 27C 1 0 261 281 315  00  00  00  283  207    0---...
 28C 1 0 271 291 325  00  00  00  319  193    0---...
 29C 2 0 241 281  00  00  00  00  319  165    0--....
 30C 3 0 265  00  00  00  00  00  205  193    0-.....
 31O 1 0 275  00  00  00  00  00  283  235    0-.....
 32N 1 0 285 385  00  00  00  00  355  207    0--....
 33O 1 0 165  00  00  00  00  00  340  105    0-.....
 34C 0 0 165 355 366  00  00  00  355   67    0---...
 35C 3 0 345  00  00  00  00  00  397   67    0-.....
 36O 0 0 346  00  00  00  00  00  355   39    0-.....
 37O 0 0 185 245  00  00  00  00  319  137    0--....
 38C 0 0 325 396 405  00  00  00  397  207    0---...
 39O 0 0 386  00  00  00  00  00  397  235    0-.....
 40C 1 0 385 415 425  00  00  00  433  193    0---...
 41N 2 0 405  00  00  00  00  00  454  217    0-.....
 42C 2 0 405 435  00  00  00  00  412  169    0--....
 43C 0 0 425 441 482  00  00  00  412  141    0---...
 44C 1 0 431 452  00  00  00  00  376  127    0--....
 45C 1 0 442 461  00  00  00  00  376   99    0--....
 46C 1 0 451 472  00  00  00  00  412   85    0--....
 47C 1 0 462 481  00  00  00  00  448   99    0--....
 48C 1 0 471 432  00  00  00  00  448  127    0--....
22      56  C40H45-Cl2N3O11      1
  1C 1 0  22  61  00  00  00  00   67   67    0--....
  2C 1 0  12  31  00  00  00  00   31   81    0--....
  3C 1 0  21  42  00  00  00  00   31  109    0--....
  4C 0 0  32  51 555  00  00  00   67  123    0---...
  5C 0 0  41  62 101  00  00  00  103  109    0---...
  6C 0 0  11  52  71  00  00  00  103   81    0---...
  7C 0 0  61  81 206  00  00  00  139   67    0---...
  8C 0 0  71  92 111  00  00  00  175   81    0---...
  9C 0 0  82 101 141  00  00  00  175  109    0---...
 10C 0 0  51  91 196  00  00  00  139  123    0---...
 11C 0 0  81 122 225  00  00  00  211   67    0---...
 12C 0 0 112 131 151  00  00  00  247   81    0---...
 13C 0 0 121 142 181  00  00  00  247  109    0---...
 14C 0 0  91 132 215  00  00  00  211  123    0---...
 15C 2 0 121 161  00  00  00  00  283   67    0--....
 16C 0 0 151 171 325 335  00  00  319   81    0----..
 17C 2 0 161 181  00  00  00  00  319  109    0--....
 18C 1 0 131 171 365  00  00  00  283  123    0---...
 19O 0 0 106  00  00  00  00  00  139  151    0-.....
 20O 0 0  76  00  00  00  00  00  139   39    0-.....
 21O 1 0 145  00  00  00  00  00  211  151    0-.....
 22O 1 0 115  00  00  00  00  00  211   39    0-.....
 23C 1 0 241 281 365  00  00  00  283  151    0---...
 24O 0 0 231 251  00  00  00  00  247  165    0--....
 25C 1 0 241 261 295  00  00  00  247  193    0---...
 26C 1 0 251 271 305  00  00  00  283  207    0---...
 27C 1 0 261 281 315  00  00  00  319  193    0---...
 28C 2 0 231 271  00  00  00  00  319  165    0--....
 29C 3 0 255  00  00  00  00  00  205  193    0-.....
 30O 1 0 265  00  00  00  00  00  283  235    0-.....
 31N 1 0 275 375  00  00  00  00  355  207    0--....
 32O 1 0 165  00  00  00  00  00  340  105    0-.....
 33C 0 0 165 345 356  00  00  00  355   67    0---...
 34C 3 0 335  00  00  00  00  00  397   67    0-.....
 35O 0 0 336  00  00  00  00  00  355   39    0-.....
 36O 0 0 185 235  00  00  00  00  319  137    0--....
 37C 0 0 315 386 395  00  00  00  397  207    0---...
 38O 0 0 376  00  00  00  00  00  397  235    0-.....
 39C 1 0 375 405 415  00  00  00  433  193    0---...
 40N 2 0 395  00  00  00  00  00  454  217    0-.....
 41C 2 0 395 425  00  00  00  00  412  169    0--....
 42C 0 0 415 431 472  00  00  00  412  141    0---...
 43C 1 0 421 442  00  00  00  00  376  127    0--....
 44C 1 0 432 451  00  00  00  00  376   99    0--....
 45C 0 0 441 462 485  00  00  00  412   85    0---...
 46C 1 0 452 471  00  00  00  00  448   99    0--....
 47C 1 0 422 461  00  00  00  00  448  127    0--....
 48N 0 0 455 495 525  00  00  00  448   71    0---...
 49C 2 0 485 505  00  00  00  00  448   43    0--....
 50C 2 0 495 515  00  00  00  00  412   29    0--....
 51CL0 0 505  00  00  00  00  00  448   15    0-.....
 52C 2 0 485 535  00  00  00  00  484   85    0--....
 53C 2 0 525 545  00  00  00  00  505  109    0--....
 54CL0 0 535  00  00  00  00  00  484  133    0-.....
 55O 0 0  45 565  00  00  00  00   67  151    0--....
 56C 3 0 555  00  00  00  00  00   88  175    0-.....
23      39  C28H31-NO10          1
  1C 1 0  22  61  00  00  00  00   67   67    0--....
  2C 1 0  12  31  00  00  00  00   31   81    0--....
  3C 1 0  21  42  00  00  00  00   31  109    0--....
  4C 0 0  32  51 195  00  00  00   67  123    0---...
  5C 0 0  41  62 101  00  00  00  103  109    0---...
  6C 0 0  11  52  71  00  00  00  103   81    0---...
  7C 0 0  61  81 216  00  00  00  139   67    0---...
  8C 0 0  71  92 111  00  00  00  175   81    0---...
  9C 0 0  82 101 141  00  00  00  175  109    0---...
 10C 0 0  51  91 206  00  00  00  139  123    0---...
 11C 0 0  81 122 235  00  00  00  211   67    0---...
 12C 0 0 112 131 151  00  00  00  247   81    0---...
 13C 0 0 121 142 181  00  00  00  247  109    0---...
 14C 0 0  91 132 225  00  00  00  211  123    0---...
 15C 2 0 121 161  00  00  00  00  283   67    0--....
 16C 0 0 151 171 335 345  00  00  319   81    0----..
 17C 2 0 161 181  00  00  00  00  319  109    0--....
 18C 1 0 131 171 375  00  00  00  283  123    0---...
 19O 1 0  45  00  00  00  00  00   67  151    0-.....
 20O 0 0 106  00  00  00  00  00  139  151    0-.....
 21O 0 0  76  00  00  00  00  00  139   39    0-.....
 22O 1 0 145  00  00  00  00  00  211  151    0-.....
 23O 1 0 115  00  00  00  00  00  211   39    0-.....
 24C 1 0 251 291 375  00  00  00  283  151    0---...
 25O 0 0 241 261  00  00  00  00  247  165    0--....
 26C 1 0 251 271 305  00  00  00  247  193    0---...
 27C 1 0 261 281 315  00  00  00  283  207    0---...
 28C 1 0 271 291 325  00  00  00  319  193    0---...
 29C 2 0 241 281  00  00  00  00  319  165    0--....
 30C 3 0 265  00  00  00  00  00  205  193    0-.....
 31O 1 0 275  00  00  00  00  00  283  235    0-.....
 32N 1 0 285 385  00  00  00  00  355  207    0--....
 33O 1 0 165  00  00  00  00  00  340  105    0-.....
 34C 0 0 165 355 366  00  00  00  355   67    0---...
 35C 3 0 345  00  00  00  00  00  397   67    0-.....
 36O 0 0 346  00  00  00  00  00  355   39    0-.....
 37O 0 0 185 245  00  00  00  00  319  137    0--....
 38C 2 0 325 395  00  00  00  00  397  207    0--....
 39C 3 0 385  00  00  00  00  00  397  179    0-.....
24      40  C29H33-NO10          1
  1C 1 0  22  61  00  00  00  00   67   67    0--....
  2C 1 0  12  31  00  00  00  00   31   81    0--....
  3C 1 0  21  42  00  00  00  00   31  109    0--....
  4C 0 0  32  51 195  00  00  00   67  123    0---...
  5C 0 0  41  62 101  00  00  00  103  109    0---...
  6C 0 0  11  52  71  00  00  00  103   81    0---...
  7C 0 0  61  81 216  00  00  00  139   67    0---...
  8C 0 0  71  92 111  00  00  00  175   81    0---...
  9C 0 0  82 101 141  00  00  00  175  109    0---...
 10C 0 0  51  91 206  00  00  00  139  123    0---...
 11C 0 0  81 122 235  00  00  00  211   67    0---...
 12C 0 0 112 131 151  00  00  00  247   81    0---...
 13C 0 0 121 142 181  00  00  00  247  109    0---...
 14C 0 0  91 132 225  00  00  00  211  123    0---...
 15C 2 0 121 161  00  00  00  00  283   67    0--....
 16C 0 0 151 171 335 345  00  00  319   81    0----..
 17C 2 0 161 181  00  00  00  00  319  109    0--....
 18C 1 0 131 171 375  00  00  00  283  123    0---...
 19O 0 0  45 405  00  00  00  00   67  151    0--....
 20O 0 0 106  00  00  00  00  00  139  151    0-.....
 21O 0 0  76  00  00  00  00  00  139   39    0-.....
 22O 1 0 145  00  00  00  00  00  211  151    0-.....
 23O 1 0 115  00  00  00  00  00  211   39    0-.....
 24C 1 0 251 291 375  00  00  00  283  151    0---...
 25O 0 0 241 261  00  00  00  00  247  165    0--....
 26C 1 0 251 271 305  00  00  00  247  193    0---...
 27C 1 0 261 281 315  00  00  00  283  207    0---...
 28C 1 0 271 291 325  00  00  00  319  193    0---...
 29C 2 0 241 281  00  00  00  00  319  165    0--....
 30C 3 0 265  00  00  00  00  00  205  193    0-.....
 31O 1 0 275  00  00  00  00  00  283  235    0-.....
 32N 1 0 285 385  00  00  00  00  355  207    0--....
 33O 1 0 165  00  00  00  00  00  340  105    0-.....
 34C 0 0 165 355 366  00  00  00  355   67    0---...
 35C 3 0 345  00  00  00  00  00  397   67    0-.....
 36O 0 0 346  00  00  00  00  00  355   39    0-.....
 37O 0 0 185 245  00  00  00  00  319  137    0--....
 38C 2 0 325 395  00  00  00  00  397  207    0--....
 39C 3 0 385  00  00  00  00  00  397  179    0-.....
 40C 3 0 195  00  00  00  00  00  103  165    0-.....
25      51  C37H34-N2O12         1
  1C 1 0  22  61  00  00  00  00   67   67    0--....
  2C 1 0  12  31  00  00  00  00   31   81    0--....
  3C 1 0  21  42  00  00  00  00   31  109    0--....
  4C 0 0  32  51 195  00  00  00   67  123    0---...
  5C 0 0  41  62 101  00  00  00  103  109    0---...
  6C 0 0  11  52  71  00  00  00  103   81    0---...
  7C 0 0  61  81 216  00  00  00  139   67    0---...
  8C 0 0  71  92 111  00  00  00  175   81    0---...
  9C 0 0  82 101 141  00  00  00  175  109    0---...
 10C 0 0  51  91 206  00  00  00  139  123    0---...
 11C 0 0  81 122 235  00  00  00  211   67    0---...
 12C 0 0 112 131 151  00  00  00  247   81    0---...
 13C 0 0 121 142 181  00  00  00  247  109    0---...
 14C 0 0  91 132 225  00  00  00  211  123    0---...
 15C 2 0 121 161  00  00  00  00  283   67    0--....
 16C 0 0 151 171 335 345  00  00  319   81    0----..
 17C 2 0 161 181  00  00  00  00  319  109    0--....
 18C 1 0 131 171 375  00  00  00  283  123    0---...
 19O 0 0  45 515  00  00  00  00   67  151    0--....
 20O 0 0 106  00  00  00  00  00  139  151    0-.....
 21O 0 0  76  00  00  00  00  00  139   39    0-.....
 22O 1 0 145  00  00  00  00  00  211  151    0-.....
 23O 1 0 115  00  00  00  00  00  211   39    0-.....
 24C 1 0 251 291 375  00  00  00  283  151    0---...
 25O 0 0 241 261  00  00  00  00  247  165    0--....
 26C 1 0 251 271 305  00  00  00  247  193    0---...
 27C 1 0 261 281 315  00  00  00  283  207    0---...
 28C 1 0 271 291 325  00  00  00  319  193    0---...
 29C 2 0 241 281  00  00  00  00  319  165    0--....
 30C 3 0 265  00  00  00  00  00  205  193    0-.....
 31O 1 0 275  00  00  00  00  00  283  235    0-.....
 32N 2 0 285  00  00  00  00  00  355  207    0-.....
 33O 1 0 165  00  00  00  00  00  340  105    0-.....
 34C 0 0 165 355 366  00  00  00  355   67    0---...
 35C 2 0 345 385  00  00  00  00  397   67    0--....
 36O 0 0 346  00  00  00  00  00  355   39    0-.....
 37O 0 0 185 245  00  00  00  00  319  137    0--....
 38O 0 0 355 395  00  00  00  00  418   91    0--....
 39C 0 0 385 406 415  00  00  00  454  105    0---...
 40O 0 0 396  00  00  00  00  00  454   77    0-.....
 41C 0 0 395 422 461  00  00  00  475  129    0---...
 42N 0 0 412 431  00  00  00  00  439  143    0--....
 43C 0 0 421 442 471  00  00  00  439  171    0---...
 44C 0 0 432 451 501  00  00  00  475  185    0---...
 45C 1 0 441 462  00  00  00  00  511  171    0--....
 46C 1 0 411 452  00  00  00  00  511  143    0--....
 47C 1 0 431 482  00  00  00  00  403  185    0--....
 48C 1 0 472 491  00  00  00  00  403  213    0--....
 49C 1 0 481 502  00  00  00  00  439  227    0--....
 50C 1 0 441 492  00  00  00  00  475  213    0--....
 51C 3 0 195  00  00  00  00  00   88  175    0-.....
26      43  C30H33-N3O10         1
  1C 1 0  22  61  00  00  00  00   67   67    0--....
  2C 1 0  12  31  00  00  00  00   31   81    0--....
  3C 1 0  21  42  00  00  00  00   31  109    0--....
  4C 0 0  32  51 195  00  00  00   67  123    0---...
  5C 0 0  41  62 101  00  00  00  103  109    0---...
  6C 0 0  11  52  71  00  00  00  103   81    0---...
  7C 0 0  61  81 216  00  00  00  139   67    0---...
  8C 0 0  71  92 111  00  00  00  175   81    0---...
  9C 0 0  82 101 141  00  00  00  175  109    0---...
 10C 0 0  51  91 206  00  00  00  139  123    0---...
 11C 0 0  81 122 235  00  00  00  211   67    0---...
 12C 0 0 112 131 151  00  00  00  247   81    0---...
 13C 0 0 121 142 181  00  00  00  247  109    0---...
 14C 0 0  91 132 225  00  00  00  211  123    0---...
 15C 2 0 121 161  00  00  00  00  283   67    0--....
 16C 0 0 151 171 335 345  00  00  319   81    0----..
 17C 2 0 161 181  00  00  00  00  319  109    0--....
 18C 1 0 131 171 365  00  00  00  283  123    0---...
 19O 0 0  45 435  00  00  00  00   67  151    0--....
 20O 0 0 106  00  00  00  00  00  139  151    0-.....
 21O 0 0  76  00  00  00  00  00  139   39    0-.....
 22O 1 0 145  00  00  00  00  00  211  151    0-.....
 23O 1 0 115  00  00  00  00  00  211   39    0-.....
 24C 1 0 251 291 365  00  00  00  283  151    0---...
 25O 0 0 241 261  00  00  00  00  247  165    0--....
 26C 1 0 251 271 305  00  00  00  247  193    0---...
 27C 1 0 261 281 315  00  00  00  283  207    0---...
 28C 1 0 271 291 325  00  00  00  319  193    0---...
 29C 2 0 241 281  00  00  00  00  319  165    0--....
 30C 3 0 265  00  00  00  00  00  205  193    0-.....
 31O 1 0 275  00  00  00  00  00  283  235    0-.....
 32N 2 0 285  00  00  00  00  00  355  207    0-.....
 33O 1 0 165  00  00  00  00  00  340  105    0-.....
 34C 1 0 165 355 425  00  00  00  355   67    0---...
 35C 2 0 345 375  00  00  00  00  397   67    0--....
 36O 0 0 185 245  00  00  00  00  319  137    0--....
 37N 0 0 355 381 411  00  00  00  418   91    0---...
 38C 1 0 371 392  00  00  00  00  397  115    0--....
 39N 0 0 382 401  00  00  00  00  418  139    0--....
 40C 1 0 391 412  00  00  00  00  454  125    0--....
 41C 1 0 371 402  00  00  00  00  454   97    0--....
 42O 1 0 345  00  00  00  00  00  355   39    0-.....
 43C 3 0 195  00  00  00  00  00   88  175    0-.....
27      48  C32H32-N6O10         1
  1C 1 0  22  61  00  00  00  00   67   67    0--....
  2C 1 0  12  31  00  00  00  00   31   81    0--....
  3C 1 0  21  42  00  00  00  00   31  109    0--....
  4C 0 0  32  51 195  00  00  00   67  123    0---...
  5C 0 0  41  62 101  00  00  00  103  109    0---...
  6C 0 0  11  52  71  00  00  00  103   81    0---...
  7C 0 0  61  81 216  00  00  00  139   67    0---...
  8C 0 0  71  92 111  00  00  00  175   81    0---...
  9C 0 0  82 101 141  00  00  00  175  109    0---...
 10C 0 0  51  91 206  00  00  00  139  123    0---...
 11C 0 0  81 122 235  00  00  00  211   67    0---...
 12C 0 0 112 131 151  00  00  00  247   81    0---...
 13C 0 0 121 142 181  00  00  00  247  109    0---...
 14C 0 0  91 132 225  00  00  00  211  123    0---...
 15C 2 0 121 161  00  00  00  00  283   67    0--....
 16C 0 0 151 171 335 345  00  00  319   81    0----..
 17C 2 0 161 181  00  00  00  00  319  109    0--....
 18C 1 0 131 171 375  00  00  00  283  123    0---...
 19O 0 0  45 485  00  00  00  00   67  151    0--....
 20O 0 0 106  00  00  00  00  00  139  151    0-.....
 21O 0 0  76  00  00  00  00  00  139   39    0-.....
 22O 1 0 145  00  00  00  00  00  211  151    0-.....
 23O 1 0 115  00  00  00  00  00  211   39    0-.....
 24C 1 0 251 291 375  00  00  00  283  151    0---...
 25O 0 0 241 261  00  00  00  00  247  165    0--....
 26C 1 0 251 271 305  00  00  00  247  193    0---...
 27C 1 0 261 281 315  00  00  00  283  207    0---...
 28C 1 0 271 291 325  00  00  00  319  193    0---...
 29C 2 0 241 281  00  00  00  00  319  165    0--....
 30C 3 0 265  00  00  00  00  00  205  193    0-.....
 31O 1 0 275  00  00  00  00  00  283  235    0-.....
 32N 2 0 285  00  00  00  00  00  355  207    0-.....
 33O 1 0 165  00  00  00  00  00  340  105    0-.....
 34C 0 0 165 355 366  00  00  00  355   67    0---...
 35C 2 0 345 385  00  00  00  00  397   67    0--....
 36O 0 0 346  00  00  00  00  00  355   39    0-.....
 37O 0 0 185 245  00  00  00  00  319  137    0--....
 38N 0 0 355 391 421  00  00  00  397   95    0---...
 39C 1 0 381 402  00  00  00  00  376  119    0--....
 40N 0 0 392 411  00  00  00  00  376  147    0--....
 41C 0 0 401 422 461  00  00  00  418  147    0---...
 42C 0 0 381 412 431  00  00  00  418  119    0---...
 43N 0 0 421 442  00  00  00  00  454  105    0--....
 44C 1 0 432 451  00  00  00  00  490  119    0--....
 45N 0 0 441 462  00  00  00  00  490  147    0--....
 46C 0 0 411 452 475  00  00  00  454  161    0---...
 47N 2 0 465  00  00  00  00  00  454  189    0-.....
 48C 3 0 195  00  00  00  00  00   88  175    0-.....
28      49  C35H32-N2O12         1
  1C 1 0  22  61  00  00  00  00   67   67    0--....
  2C 1 0  12  31  00  00  00  00   31   81    0--....
  3C 1 0  21  42  00  00  00  00   31  109    0--....
  4C 0 0  32  51 195  00  00  00   67  123    0---...
  5C 0 0  41  62 101  00  00  00  103  109    0---...
  6C 0 0  11  52  71  00  00  00  103   81    0---...
  7C 0 0  61  81 216  00  00  00  139   67    0---...
  8C 0 0  71  92 111  00  00  00  175   81    0---...
  9C 0 0  82 101 141  00  00  00  175  109    0---...
 10C 0 0  51  91 206  00  00  00  139  123    0---...
 11C 0 0  81 122 235  00  00  00  211   67    0---...
 12C 0 0 112 131 151  00  00  00  247   81    0---...
 13C 0 0 121 142 181  00  00  00  247  109    0---...
 14C 0 0  91 132 225  00  00  00  211  123    0---...
 15C 2 0 121 161  00  00  00  00  283   67    0--....
 16C 0 0 151 171 335 345  00  00  319   81    0----..
 17C 2 0 161 181  00  00  00  00  319  109    0--....
 18C 1 0 131 171 375  00  00  00  283  123    0---...
 19O 0 0  45 495  00  00  00  00   67  151    0--....
 20O 0 0 106  00  00  00  00  00  139  151    0-.....
 21O 0 0  76  00  00  00  00  00  139   39    0-.....
 22O 1 0 145  00  00  00  00  00  211  151    0-.....
 23O 1 0 115  00  00  00  00  00  211   39    0-.....
 24C 1 0 251 291 375  00  00  00  283  151    0---...
 25O 0 0 241 261  00  00  00  00  247  165    0--....
 26C 1 0 251 271 305  00  00  00  247  193    0---...
 27C 1 0 261 281 315  00  00  00  283  207    0---...
 28C 1 0 271 291 325  00  00  00  319  193    0---...
 29C 2 0 241 281  00  00  00  00  319  165    0--....
 30C 3 0 265  00  00  00  00  00  205  193    0-.....
 31O 1 0 275  00  00  00  00  00  283  235    0-.....
 32N 2 0 285  00  00  00  00  00  355  207    0-.....
 33O 1 0 165  00  00  00  00  00  340  105    0-.....
 34C 0 0 165 355 366  00  00  00  355   67    0---...
 35C 2 0 345 385  00  00  00  00  397   67    0--....
 36O 0 0 346  00  00  00  00  00  355   39    0-.....
 37O 0 0 185 245  00  00  00  00  319  137    0--....
 38N 0 0 355 391 421  00  00  00  418   91    0---...
 39C 0 0 381 401 436  00  00  00  397  115    0---...
 40C 0 0 391 411 482  00  00  00  397  143    0---...
 41C 0 0 401 421 452  00  00  00  439  143    0---...
 42C 0 0 381 411 446  00  00  00  439  115    0---...
 43O 0 0 396  00  00  00  00  00  376   91    0-.....
 44O 0 0 426  00  00  00  00  00  460   91    0-.....
 45C 1 0 412 461  00  00  00  00  460  167    0--....
 46C 1 0 451 472  00  00  00  00  439  191    0--....
 47C 1 0 462 481  00  00  00  00  397  191    0--....
 48C 1 0 402 471  00  00  00  00  376  167    0--....
 49C 3 0 195  00  00  00  00  00   88  175    0-.....
29      50  C36H40-N4O10         1
  1C 1 0  22  61  00  00  00  00   67   67    0--....
  2C 1 0  12  31  00  00  00  00   31   81    0--....
  3C 1 0  21  42  00  00  00  00   31  109    0--....
  4C 0 0  32  51 195  00  00  00   67  123    0---...
  5C 0 0  41  62 101  00  00  00  103  109    0---...
  6C 0 0  11  52  71  00  00  00  103   81    0---...
  7C 0 0  61  81 216  00  00  00  139   67    0---...
  8C 0 0  71  92 111  00  00  00  175   81    0---...
  9C 0 0  82 101 141  00  00  00  175  109    0---...
 10C 0 0  51  91 206  00  00  00  139  123    0---...
 11C 0 0  81 122 235  00  00  00  211   67    0---...
 12C 0 0 112 131 151  00  00  00  247   81    0---...
 13C 0 0 121 142 181  00  00  00  247  109    0---...
 14C 0 0  91 132 225  00  00  00  211  123    0---...
 15C 2 0 121 161  00  00  00  00  283   67    0--....
 16C 0 0 151 171 335 345  00  00  319   81    0----..
 17C 2 0 161 181  00  00  00  00  319  109    0--....
 18C 1 0 131 171 375  00  00  00  283  123    0---...
 19O 0 0  45 505  00  00  00  00   67  151    0--....
 20O 0 0 106  00  00  00  00  00  139  151    0-.....
 21O 0 0  76  00  00  00  00  00  139   39    0-.....
 22O 1 0 145  00  00  00  00  00  211  151    0-.....
 23O 1 0 115  00  00  00  00  00  211   39    0-.....
 24C 1 0 251 291 375  00  00  00  283  151    0---...
 25O 0 0 241 261  00  00  00  00  247  165    0--....
 26C 1 0 251 271 305  00  00  00  247  193    0---...
 27C 1 0 261 281 315  00  00  00  283  207    0---...
 28C 1 0 271 291 325  00  00  00  319  193    0---...
 29C 2 0 241 281  00  00  00  00  319  165    0--....
 30C 3 0 265  00  00  00  00  00  205  193    0-.....
 31O 1 0 275  00  00  00  00  00  283  235    0-.....
 32N 2 0 285  00  00  00  00  00  355  207    0-.....
 33O 1 0 165  00  00  00  00  00  340  105    0-.....
 34C 0 0 165 355 366  00  00  00  355   67    0---...
 35C 3 0 345  00  00  00  00  00  397   67    0-.....
 36N 0 0 346 385  00  00  00  00  355   39    0--....
 37O 0 0 185 245  00  00  00  00  319  137    0--....
 38N 1 0 365 395  00  00  00  00  397   39    0--....
 39C 0 0 385 406 415  00  00  00  433   53    0---...
 40O 0 0 396  00  00  00  00  00  475   53    0-.....
 41C 1 0 395 425 435  00  00  00  433   81    0---...
 42N 2 0 415  00  00  00  00  00  475   81    0-.....
 43C 2 0 415 445  00  00  00  00  412  105    0--....
 44C 0 0 435 452 491  00  00  00  433  129    0---...
 45C 1 0 442 461  00  00  00  00  397  143    0--....
 46C 1 0 451 472  00  00  00  00  397  171    0--....
 47C 1 0 462 481  00  00  00  00  433  185    0--....
 48C 1 0 471 492  00  00  00  00  469  171    0--....
 49C 1 0 441 482  00  00  00  00  469  143    0--....
 50C 3 0 195  00  00  00  00  00   88  175    0-.....
30      44  C30H32-N4O10         1
  1C 1 0  22  61  00  00  00  00   67   67    0--....
  2C 1 0  12  31  00  00  00  00   31   81    0--....
  3C 1 0  21  42  00  00  00  00   31  109    0--....
  4C 0 0  32  51 195  00  00  00   67  123    0---...
  5C 0 0  41  62 101  00  00  00  103  109    0---...
  6C 0 0  11  52  71  00  00  00  103   81    0---...
  7C 0 0  61  81 216  00  00  00  139   67    0---...
  8C 0 0  71  92 111  00  00  00  175   81    0---...
  9C 0 0  82 101 141  00  00  00  175  109    0---...
 10C 0 0  51  91 206  00  00  00  139  123    0---...
 11C 0 0  81 122 235  00  00  00  211   67    0---...
 12C 0 0 112 131 151  00  00  00  247   81    0---...
 13C 0 0 121 142 181  00  00  00  247  109    0---...
 14C 0 0  91 132 225  00  00  00  211  123    0---...
 15C 2 0 121 161  00  00  00  00  283   67    0--....
 16C 0 0 151 171 335 345  00  00  319   81    0----..
 17C 2 0 161 181  00  00  00  00  319  109    0--....
 18C 1 0 131 171 375  00  00  00  283  123    0---...
 19O 0 0  45 385  00  00  00  00   67  151    0--....
 20O 0 0 106  00  00  00  00  00  139  151    0-.....
 21O 0 0  76  00  00  00  00  00  139   39    0-.....
 22O 1 0 145  00  00  00  00  00  211  151    0-.....
 23O 1 0 115  00  00  00  00  00  211   39    0-.....
 24C 1 0 251 291 375  00  00  00  283  151    0---...
 25O 0 0 241 261  00  00  00  00  247  165    0--....
 26C 1 0 251 271 305  00  00  00  247  193    0---...
 27C 1 0 261 281 315  00  00  00  283  207    0---...
 28C 1 0 271 291 325  00  00  00  319  193    0---...
 29C 2 0 241 281  00  00  00  00  319  165    0--....
 30C 3 0 265  00  00  00  00  00  205  193    0-.....
 31O 1 0 275  00  00  00  00  00  283  235    0-.....
 32N 2 0 285  00  00  00  00  00  355  207    0-.....
 33O 1 0 165  00  00  00  00  00  340  105    0-.....
 34C 0 0 165 355 366  00  00  00  355   67    0---...
 35C 3 0 345  00  00  00  00  00  397   67    0-.....
 36N 0 0 346 395  00  00  00  00  355   39    0--....
 37O 0 0 185 245  00  00  00  00  319  137    0--....
 38C 3 0 195  00  00  00  00  00   88  175    0-.....
 39N 1 0 365 405  00  00  00  00  397   39    0--....
 40C 0 0 395 415 446  00  00  00  433   53    0---...
 41C 2 0 405 425  00  00  00  00  433   81    0--....
 42C 0 0 415 437  00  00  00  00  412  105    0--....
 43N 0 0 427  00  00  00  00  00  454  105    0-.....
 44O 0 0 406  00  00  00  00  00  475   53    0-.....
31      59  C39H46-N6O14         1
  1C 1 0  22  61  00  00  00  00   67   67    0--....
  2C 1 0  12  31  00  00  00  00   31   81    0--....
  3C 1 0  21  42  00  00  00  00   31  109    0--....
  4C 0 0  32  51 195  00  00  00   67  123    0---...
  5C 0 0  41  62 101  00  00  00  103  109    0---...
  6C 0 0  11  52  71  00  00  00  103   81    0---...
  7C 0 0  61  81 216  00  00  00  139   67    0---...
  8C 0 0  71  92 111  00  00  00  175   81    0---...
  9C 0 0  82 101 141  00  00  00  175  109    0---...
 10C 0 0  51  91 206  00  00  00  139  123    0---...
 11C 0 0  81 122 235  00  00  00  211   67    0---...
 12C 0 0 112 131 151  00  00  00  247   81    0---...
 13C 0 0 121 142 181  00  00  00  247  109    0---...
 14C 0 0  91 132 225  00  00  00  211  123    0---...
 15C 2 0 121 161  00  00  00  00  283   67    0--....
 16C 0 0 151 171 335 345  00  00  319   81    0----..
 17C 2 0 161 181  00  00  00  00  319  109    0--....
 18C 1 0 131 171 375  00  00  00  283  123    0---...
 19O 0 0  45 595  00  00  00  00   67  151    0--....
 20O 0 0 106  00  00  00  00  00  139  151    0-.....
 21O 0 0  76  00  00  00  00  00  139   39    0-.....
 22O 1 0 145  00  00  00  00  00  211  151    0-.....
 23O 1 0 115  00  00  00  00  00  211   39    0-.....
 24C 1 0 251 291 375  00  00  00  283  151    0---...
 25O 0 0 241 261  00  00  00  00  247  165    0--....
 26C 1 0 251 271 305  00  00  00  247  193    0---...
 27C 1 0 261 281 315  00  00  00  283  207    0---...
 28C 1 0 271 291 325  00  00  00  319  193    0---...
 29C 2 0 241 281  00  00  00  00  319  165    0--....
 30C 3 0 265  00  00  00  00  00  205  193    0-.....
 31O 1 0 275  00  00  00  00  00  283  235    0-.....
 32N 2 0 285  00  00  00  00  00  355  207    0-.....
 33O 1 0 165  00  00  00  00  00  340  105    0-.....
 34C 0 0 165 355 366  00  00  00  355   67    0---...
 35C 3 0 345  00  00  00  00  00  397   67    0-.....
 36N 0 0 346 385  00  00  00  00  355   39    0--....
 37O 0 0 185 245  00  00  00  00  319  137    0--....
 38N 1 0 365 395  00  00  00  00  397   39    0--....
 39C 0 0 385 406 415  00  00  00  433   53    0---...
 40O 0 0 396  00  00  00  00  00  475   53    0-.....
 41C 1 0 395 425 515  00  00  00  433   81    0---...
 42C 2 0 415 435  00  00  00  00  454  105    0--....
 43N 0 0 425 441 481  00  00  00  454  133    0---...
 44C 1 0 431 452  00  00  00  00  418  147    0--....
 45C 1 0 442 461  00  00  00  00  418  175    0--....
 46C 0 0 451 471 506  00  00  00  454  189    0---...
 47N 1 0 461 481  00  00  00  00  490  175    0--....
 48C 0 0 431 471 496  00  00  00  490  147    0---...
 49O 0 0 486  00  00  00  00  00  511  123    0-.....
 50O 0 0 466  00  00  00  00  00  454  217    0-.....
 51N 1 0 415 525  00  00  00  00  397   95    0--....
 52C 0 0 515 536 545  00  00  00  376  119    0---...
 53O 0 0 526  00  00  00  00  00  355  143    0-.....
 54O 0 0 525 555  00  00  00  00  376  147    0--....
 55C 0 0 545 565 575 585  00  00  397  171    0----..
 56C 3 0 555  00  00  00  00  00  355  171    0-.....
 57C 3 0 555  00  00  00  00  00  376  195    0-.....
 58C 3 0 555  00  00  00  00  00  397  199    0-.....
 59C 3 0 195  00  00  00  00  00   88  175    0-.....
32      61  C40H47-N9O12         1
  1C 1 0  22  61  00  00  00  00   67   67    0--....
  2C 1 0  12  31  00  00  00  00   31   81    0--....
  3C 1 0  21  42  00  00  00  00   31  109    0--....
  4C 0 0  32  51 195  00  00  00   67  123    0---...
  5C 0 0  41  62 101  00  00  00  103  109    0---...
  6C 0 0  11  52  71  00  00  00  103   81    0---...
  7C 0 0  61  81 216  00  00  00  139   67    0---...
  8C 0 0  71  92 111  00  00  00  175   81    0---...
  9C 0 0  82 101 141  00  00  00  175  109    0---...
 10C 0 0  51  91 206  00  00  00  139  123    0---...
 11C 0 0  81 122 235  00  00  00  211   67    0---...
 12C 0 0 112 131 151  00  00  00  247   81    0---...
 13C 0 0 121 142 181  00  00  00  247  109    0---...
 14C 0 0  91 132 225  00  00  00  211  123    0---...
 15C 2 0 121 161  00  00  00  00  283   67    0--....
 16C 0 0 151 171 335 345  00  00  319   81    0----..
 17C 2 0 161 181  00  00  00  00  319  109    0--....
 18C 1 0 131 171 375  00  00  00  283  123    0---...
 19O 0 0  45 615  00  00  00  00   67  151    0--....
 20O 0 0 106  00  00  00  00  00  139  151    0-.....
 21O 0 0  76  00  00  00  00  00  139   39    0-.....
 22O 1 0 145  00  00  00  00  00  211  151    0-.....
 23O 1 0 115  00  00  00  00  00  211   39    0-.....
 24C 1 0 251 291 375  00  00  00  283  151    0---...
 25O 0 0 241 261  00  00  00  00  247  165    0--....
 26C 1 0 251 271 305  00  00  00  247  193    0---...
 27C 1 0 261 281 315  00  00  00  283  207    0---...
 28C 1 0 271 291 325  00  00  00  319  193    0---...
 29C 2 0 241 281  00  00  00  00  319  165    0--....
 30C 3 0 265  00  00  00  00  00  205  193    0-.....
 31O 1 0 275  00  00  00  00  00  283  235    0-.....
 32N 2 0 285  00  00  00  00  00  355  207    0-.....
 33O 1 0 165  00  00  00  00  00  340  105    0-.....
 34C 0 0 165 355 366  00  00  00  355   67    0---...
 35C 3 0 345  00  00  00  00  00  397   67    0-.....
 36N 0 0 346 385  00  00  00  00  355   39    0--....
 37O 0 0 185 245  00  00  00  00  319  137    0--....
 38N 1 0 365 395  00  00  00  00  397   39    0--....
 39C 0 0 385 406 415  00  00  00  418   63    0---...
 40O 0 0 396  00  00  00  00  00  460   63    0-.....
 41C 1 0 395 425 535  00  00  00  439   87    0---...
 42C 2 0 415 435  00  00  00  00  418  111    0--....
 43N 0 0 425 441 471  00  00  00  418  139    0---...
 44C 1 0 431 452  00  00  00  00  397  163    0--....
 45N 0 0 442 461  00  00  00  00  397  191    0--....
 46C 0 0 451 472 511  00  00  00  439  191    0---...
 47C 0 0 431 462 481  00  00  00  439  163    0---...
 48N 0 0 471 492  00  00  00  00  475  149    0--....
 49C 1 0 482 501  00  00  00  00  511  163    0--....
 50N 0 0 491 512  00  00  00  00  511  191    0--....
 51C 0 0 461 502 525  00  00  00  475  205    0---...
 52N 2 0 515  00  00  00  00  00  475  233    0-.....
 53N 1 0 415 545  00  00  00  00  397   87    0--....
 54C 0 0 535 556 565  00  00  00  376  111    0---...
 55O 0 0 546  00  00  00  00  00  340  125    0-.....
 56O 0 0 545 575  00  00  00  00  355  135    0--....
 57C 0 0 565 585 595 605  00  00  355  163    0----..
 58C 3 0 575  00  00  00  00  00  334  187    0-.....
 59C 3 0 575  00  00  00  00  00  355  191    0-.....
 60C 3 0 575  00  00  00  00  00  376  187    0-.....
 61C 3 0 195  00  00  00  00  00  103  165    0-.....
33      41  C30H35-NO10          1
  1C 1 0  22  61  00  00  00  00   67   67    0--....
  2C 1 0  12  31  00  00  00  00   31   81    0--....
  3C 1 0  21  42  00  00  00  00   31  109    0--....
  4C 0 0  32  51 195  00  00  00   67  123    0---...
  5C 0 0  41  62 101  00  00  00  103  109    0---...
  6C 0 0  11  52  71  00  00  00  103   81    0---...
  7C 0 0  61  81 216  00  00  00  139   67    0---...
  8C 0 0  71  92 111  00  00  00  175   81    0---...
  9C 0 0  82 101 141  00  00  00  175  109    0---...
 10C 0 0  51  91 206  00  00  00  139  123    0---...
 11C 0 0  81 122 235  00  00  00  211   67    0---...
 12C 0 0 112 131 151  00  00  00  247   81    0---...
 13C 0 0 121 142 181  00  00  00  247  109    0---...
 14C 0 0  91 132 225  00  00  00  211  123    0---...
 15C 2 0 121 161  00  00  00  00  283   67    0--....
 16C 0 0 151 171 335 345  00  00  319   81    0----..
 17C 2 0 161 181  00  00  00  00  319  109    0--....
 18C 1 0 131 171 375  00  00  00  283  123    0---...
 19O 1 0  45  00  00  00  00  00   67  151    0-.....
 20O 0 0 106  00  00  00  00  00  139  151    0-.....
 21O 0 0  76  00  00  00  00  00  139   39    0-.....
 22O 1 0 145  00  00  00  00  00  211  151    0-.....
 23O 1 0 115  00  00  00  00  00  211   39    0-.....
 24C 1 0 251 291 375  00  00  00  283  151    0---...
 25O 0 0 241 261  00  00  00  00  247  165    0--....
 26C 1 0 251 271 305  00  00  00  247  193    0---...
 27C 1 0 261 281 315  00  00  00  283  207    0---...
 28C 1 0 271 291 325  00  00  00  319  193    0---...
[...]
 27C 1 0 261 281 305  00  00  00  283  207    0---...
 28C 1 0 271 291 385  00  00  00  319  193    0---...
 29C 2 0 241 281  00  00  00  00  319  165    0--....
 30O 1 0 275  00  00  00  00  00  283  235    0-.....
 31O 1 0 165  00  00  00  00  00  340  105    0-.....
 32O 0 0 185 245  00  00  00  00  319  137    0--....
 33C 3 0 195  00  00  00  00  00   88  175    0-.....
 34C 3 0 265  00  00  00  00  00  211  207    0-.....
 35C 0 0 165 366 375  00  00  00  319   53    0---...
 36O 0 0 356  00  00  00  00  00  277   53    0-.....
 37C 3 0 355  00  00  00  00  00  298   29    0-.....
 38N 1 0 285 395  00  00  00  00  355  207    0--....
 39C 0 0 385 405 426  00  00  00  397  207    0---...
 40N 1 0 395 415  00  00  00  00  433  193    0--....
 41C 2 0 405 435  00  00  00  00  433  165    0--....
 42S 0 0 396  00  00  00  00  00  397  235    0-.....
 43C 1 0 415 446  00  00  00  00  469  151    0--....
 44C 2 0 436  00  00  00  00  00  469  123    0-.....
80      47  C34H34N2O10S         1
  1C 1 0  22  61  00  00  00  00   67   67    0--....
  2C 1 0  12  31  00  00  00  00   31   81    0--....
  3C 1 0  21  42  00  00  00  00   31  109    0--....
  4C 0 0  32  51 195  00  00  00   67  123    0---...
  5C 0 0  41  62 101  00  00  00  103  109    0---...
  6C 0 0  11  52  71  00  00  00  103   81    0---...
  7C 0 0  61  81 216  00  00  00  139   67    0---...
  8C 0 0  71  92 111  00  00  00  175   81    0---...
  9C 0 0  82 101 141  00  00  00  175  109    0---...
 10C 0 0  51  91 206  00  00  00  139  123    0---...
 11C 0 0  81 122 235  00  00  00  211   67    0---...
 12C 0 0 112 131 151  00  00  00  247   81    0---...
 13C 0 0 121 142 181  00  00  00  247  109    0---...
 14C 0 0  91 132 225  00  00  00  211  123    0---...
 15C 2 0 121 161  00  00  00  00  283   67    0--....
 16C 0 0 151 171 315 355  00  00  319   81    0----..
 17C 2 0 161 181  00  00  00  00  319  109    0--....
 18C 1 0 131 171 325  00  00  00  283  123    0---...
 19O 0 0  45 335  00  00  00  00   67  151    0--....
 20O 0 0 106  00  00  00  00  00  139  151    0-.....
 21O 0 0  76  00  00  00  00  00  139   39    0-.....
 22O 1 0 145  00  00  00  00  00  211  151    0-.....
 23O 1 0 115  00  00  00  00  00  211   39    0-.....
 24C 1 0 251 291 325  00  00  00  283  151    0---...
 25O 0 0 241 261  00  00  00  00  247  165    0--....
 26C 1 0 251 271 345  00  00  00  247  193    0---...
 27C 1 0 261 281 305  00  00  00  283  207    0---...
 28C 1 0 271 291 385  00  00  00  319  193    0---...
 29C 2 0 241 281  00  00  00  00  319  165    0--....
 30O 1 0 275  00  00  00  00  00  283  235    0-.....
 31O 1 0 165  00  00  00  00  00  340  105    0-.....
 32O 0 0 185 245  00  00  00  00  319  137    0--....
 33C 3 0 195  00  00  00  00  00   88  175    0-.....
 34C 3 0 265  00  00  00  00  00  211  207    0-.....
 35C 0 0 165 366 375  00  00  00  319   53    0---...
 36O 0 0 356  00  00  00  00  00  277   53    0-.....
 37C 3 0 355  00  00  00  00  00  298   29    0-.....
 38N 1 0 285 395  00  00  00  00  355  207    0--....
 39C 0 0 385 406 415  00  00  00  397  207    0---...
 40S 0 0 396  00  00  00  00  00  397  235    0-.....
 41N 1 0 395 425  00  00  00  00  433  193    0--....
 42C 0 0 415 431 472  00  00  00  433  165    0---...
 43C 1 0 421 442  00  00  00  00  469  151    0--....
 44C 1 0 432 451  00  00  00  00  469  123    0--....
 45C 1 0 441 462  00  00  00  00  433  109    0--....
 46C 1 0 452 471  00  00  00  00  397  123    0--....
 47C 1 0 461 422  00  00  00  00  397  151    0--....
81      45  C33H39N3O9           1
  1C 1 0  22  61  00  00  00  00   67   67    0--....
  2C 1 0  12  31  00  00  00  00   31   81    0--....
  3C 1 0  21  42  00  00  00  00   31  109    0--....
  4C 0 0  32  51 195  00  00  00   67  123    0---...
  5C 0 0  41  62 101  00  00  00  103  109    0---...
  6C 0 0  11  52  71  00  00  00  103   81    0---...
  7C 0 0  61  81 216  00  00  00  139   67    0---...
  8C 0 0  71  92 111  00  00  00  175   81    0---...
  9C 0 0  82 101 141  00  00  00  175  109    0---...
 10C 0 0  51  91 206  00  00  00  139  123    0---...
 11C 0 0  81 122 235  00  00  00  211   67    0---...
 12C 0 0 112 131 151  00  00  00  247   81    0---...
 13C 0 0 121 142 181  00  00  00  247  109    0---...
 14C 0 0  91 132 225  00  00  00  211  123    0---...
 15C 2 0 121 161  00  00  00  00  283   67    0--....
 16C 0 0 151 171 315 365  00  00  319   81    0----..
 17C 2 0 161 181  00  00  00  00  319  109    0--....
 18C 1 0 131 171 325  00  00  00  283  123    0---...
 19O 0 0  45 335  00  00  00  00   67  151    0--....
 20O 0 0 106  00  00  00  00  00  139  151    0-.....
 21O 0 0  76  00  00  00  00  00  139   39    0-.....
 22O 1 0 145  00  00  00  00  00  211  151    0-.....
 23O 1 0 115  00  00  00  00  00  211   39    0-.....
 24C 1 0 251 291 325  00  00  00  283  151    0---...
 25O 0 0 241 261  00  00  00  00  247  165    0--....
 26C 1 0 251 271 345  00  00  00  247  193    0---...
 27C 1 0 261 281 305  00  00  00  283  207    0---...
 28C 1 0 271 291 355  00  00  00  319  193    0---...
 29C 2 0 241 281  00  00  00  00  319  165    0--....
 30O 1 0 275  00  00  00  00  00  283  235    0-.....
 31O 1 0 165  00  00  00  00  00  340  105    0-.....
 32O 0 0 185 245  00  00  00  00  319  137    0--....
 33C 3 0 195  00  00  00  00  00   88  175    0-.....
 34C 3 0 265  00  00  00  00  00  211  207    0-.....
 35N 2 0 285  00  00  00  00  00  355  207    0-.....
 36C 0 0 165 375 386  00  00  00  361   81    0---...
 37C 3 0 365  00  00  00  00  00  397   95    0-.....
 38N 0 0 366 395  00  00  00  00  382   57    0--....
 39N 0 0 385 406  00  00  00  00  418   43    0--....
 40C 0 0 396 411 451  00  00  00  439   67    0---...
 41C 2 0 401 421  00  00  00  00  418   91    0--....
 42C 2 0 411 431  00  00  00  00  439  115    0--....
 43C 2 0 421 441  00  00  00  00  481  115    0--....
 44C 2 0 431 451  00  00  00  00  502   91    0--....
 45C 2 0 441 401  00  00  00  00  481   67    0--....
82      44  C32H37N3O9           1
  1C 1 0  22  61  00  00  00  00   67   67    0--....
  2C 1 0  12  31  00  00  00  00   31   81    0--....
  3C 1 0  21  42  00  00  00  00   31  109    0--....
  4C 0 0  32  51 195  00  00  00   67  123    0---...
  5C 0 0  41  62 101  00  00  00  103  109    0---...
  6C 0 0  11  52  71  00  00  00  103   81    0---...
  7C 0 0  61  81 216  00  00  00  139   67    0---...
  8C 0 0  71  92 111  00  00  00  175   81    0---...
  9C 0 0  82 101 141  00  00  00  175  109    0---...
 10C 0 0  51  91 206  00  00  00  139  123    0---...
 11C 0 0  81 122 235  00  00  00  211   67    0---...
 12C 0 0 112 131 151  00  00  00  247   81    0---...
 13C 0 0 121 142 181  00  00  00  247  109    0---...
 14C 0 0  91 132 225  00  00  00  211  123    0---...
 15C 2 0 121 161  00  00  00  00  283   67    0--....
 16C 0 0 151 171 315 355  00  00  319   81    0----..
 17C 2 0 161 181  00  00  00  00  319  109    0--....
 18C 1 0 131 171 325  00  00  00  283  123    0---...
 19O 1 0  45  00  00  00  00  00   67  151    0-.....
 20O 0 0 106  00  00  00  00  00  139  151    0-.....
 21O 0 0  76  00  00  00  00  00  139   39    0-.....
 22O 1 0 145  00  00  00  00  00  211  151    0-.....
 23O 1 0 115  00  00  00  00  00  211   39    0-.....
 24C 1 0 251 291 325  00  00  00  283  151    0---...
 25O 0 0 241 261  00  00  00  00  247  165    0--....
 26C 1 0 251 271 335  00  00  00  247  193    0---...
 27C 1 0 261 281 305  00  00  00  283  207    0---...
 28C 1 0 271 291 345  00  00  00  319  193    0---...
 29C 2 0 241 281  00  00  00  00  319  165    0--....
 30O 1 0 275  00  00  00  00  00  283  235    0-.....
 31O 1 0 165  00  00  00  00  00  340  105    0-.....
 32O 0 0 185 245  00  00  00  00  319  137    0--....
 33C 3 0 265  00  00  00  00  00  211  207    0-.....
 34N 2 0 285  00  00  00  00  00  355  207    0-.....
 35C 0 0 165 365 376  00  00  00  361   81    0---...
 36C 3 0 355  00  00  00  00  00  397   95    0-.....
 37N 0 0 356 385  00  00  00  00  382   57    0--....
 38N 0 0 375 396  00  00  00  00  418   43    0--....
 39C 0 0 386 401 441  00  00  00  439   67    0---...
 40C 2 0 391 411  00  00  00  00  418   91    0--....
 41C 2 0 401 421  00  00  00  00  439  115    0--....
 42C 2 0 411 431  00  00  00  00  481  115    0--....
 43C 2 0 421 441  00  00  00  00  502   91    0--....
 44C 2 0 391 431  00  00  00  00  481   67    0--....
83      43  C31H35NO11           1
  1C 1 0  22  61  00  00  00  00   67   67    0--....
  2C 1 0  12  31  00  00  00  00   31   81    0--....
  3C 1 0  21  42  00  00  00  00   31  109    0--....
  4C 0 0  32  51 195  00  00  00   67  123    0---...
  5C 0 0  41  62 101  00  00  00  103  109    0---...
  6C 0 0  11  52  71  00  00  00  103   81    0---...
  7C 0 0  61  81 216  00  00  00  139   67    0---...
  8C 0 0  71  92 111  00  00  00  175   81    0---...
  9C 0 0  82 101 141  00  00  00  175  109    0---...
 10C 0 0  51  91 206  00  00  00  139  123    0---...
 11C 0 0  81 122 235  00  00  00  211   67    0---...
 12C 0 0 112 131 151  00  00  00  247   81    0---...
 13C 0 0 121 142 181  00  00  00  247  109    0---...
 14C 0 0  91 132 225  00  00  00  211  123    0---...
 15C 2 0 121 161  00  00  00  00  283   67    0--....
 16C 0 0 151 171 315 355  00  00  319   81    0----..
 17C 2 0 161 181  00  00  00  00  319  109    0--....
 18C 1 0 131 171 325  00  00  00  283  123    0---...
 19O 0 0  45 385  00  00  00  00   67  151    0--....
 20O 0 0 106  00  00  00  00  00  139  151    0-.....
 21O 0 0  76  00  00  00  00  00  139   39    0-.....
 22O 1 0 145  00  00  00  00  00  211  151    0-.....
 23O 1 0 115  00  00  00  00  00  211   39    0-.....
 24C 1 0 251 291 325  00  00  00  283  151    0---...
 25O 0 0 241 261  00  00  00  00  247  165    0--....
 26C 1 0 251 271 335  00  00  00  247  193    0---...
 27C 1 0 261 281 305  00  00  00  283  207    0---...
 28C 1 0 271 291 345  00  00  00  319  193    0---...
 29C 2 0 241 281  00  00  00  00  319  165    0--....
 30O 1 0 275  00  00  00  00  00  283  235    0-.....
 31O 1 0 165  00  00  00  00  00  340  105    0-.....
 32O 0 0 185 245  00  00  00  00  319  137    0--....
 33C 3 0 265  00  00  00  00  00  211  207    0-.....
 34N 0 0 285 391 431  00  00  00  355  207    0---...
 35C 0 0 165 365 376  00  00  00  361   81    0---...
 36C 3 0 355  00  00  00  00  00  397   95    0-.....
 37O 0 0 356  00  00  00  00  00  382   57    0-.....
 38C 3 0 195  00  00  00  00  00   88  175    0-.....
 39C 2 0 341 401  00  00  00  00  376  183    0--....
 40C 2 0 391 411  00  00  00  00  418  183    0--....
 41O 0 0 401 421  00  00  00  00  439  207    0--....
 42C 2 0 411 431  00  00  00  00  418  231    0--....
 43C 2 0 421 341  00  00  00  00  376  231    0--....
84      42  C30H33NO11           1
  1C 1 0  22  61  00  00  00  00   67   67    0--....
  2C 1 0  12  31  00  00  00  00   31   81    0--....
  3C 1 0  21  42  00  00  00  00   31  109    0--....
  4C 0 0  32  51 195  00  00  00   67  123    0---...
  5C 0 0  41  62 101  00  00  00  103  109    0---...
  6C 0 0  11  52  71  00  00  00  103   81    0---...
  7C 0 0  61  81 216  00  00  00  139   67    0---...
  8C 0 0  71  92 111  00  00  00  175   81    0---...
  9C 0 0  82 101 141  00  00  00  175  109    0---...
 10C 0 0  51  91 206  00  00  00  139  123    0---...
 11C 0 0  81 122 235  00  00  00  211   67    0---...
 12C 0 0 112 131 151  00  00  00  247   81    0---...
 13C 0 0 121 142 181  00  00  00  247  109    0---...
 14C 0 0  91 132 225  00  00  00  211  123    0---...
 15C 2 0 121 161  00  00  00  00  283   67    0--....
 16C 0 0 151 171 315 355  00  00  319   81    0----..
 17C 2 0 161 181  00  00  00  00  319  109    0--....
 18C 1 0 131 171 325  00  00  00  283  123    0---...
 19O 1 0  45  00  00  00  00  00   67  151    0-.....
 20O 0 0 106  00  00  00  00  00  139  151    0-.....
 21O 0 0  76  00  00  00  00  00  139   39    0-.....
 22O 1 0 145  00  00  00  00  00  211  151    0-.....
 23O 1 0 115  00  00  00  00  00  211   39    0-.....
 24C 1 0 251 291 325  00  00  00  283  151    0---...
 25O 0 0 241 261  00  00  00  00  247  165    0--....
 26C 1 0 251 271 335  00  00  00  247  193    0---...
 27C 1 0 261 281 305  00  00  00  283  207    0---...
 28C 1 0 271 291 345  00  00  00  319  193    0---...
 29C 2 0 241 281  00  00  00  00  319  165    0--....
 30O 1 0 275  00  00  00  00  00  283  235    0-.....
 31O 1 0 165  00  00  00  00  00  340  105    0-.....
 32O 0 0 185 245  00  00  00  00  319  137    0--....
 33C 3 0 265  00  00  00  00  00  211  207    0-.....
 34N 0 0 285 381 421  00  00  00  355  207    0---...
 35C 0 0 165 365 376  00  00  00  361   81    0---...
 36C 3 0 355  00  00  00  00  00  397   95    0-.....
 37O 0 0 356  00  00  00  00  00  382   57    0-.....
 38C 2 0 341 391  00  00  00  00  376  183    0--....
 39C 2 0 381 401  00  00  00  00  418  183    0--....
 40O 0 0 391 411  00  00  00  00  439  207    0--....
 41C 2 0 401 421  00  00  00  00  418  231    0--....
 42C 2 0 341 411  00  00  00  00  376  231    0--....
85      42  C30H34N2O10          1
  1C 1 0  22  61  00  00  00  00   67   67    0--....
  2C 1 0  12  31  00  00  00  00   31   81    0--....
  3C 1 0  21  42  00  00  00  00   31  109    0--....
  4C 0 0  32  51 195  00  00  00   67  123    0---...
  5C 0 0  41  62 101  00  00  00  103  109    0---...
  6C 0 0  11  52  71  00  00  00  103   81    0---...
  7C 0 0  61  81 216  00  00  00  139   67    0---...
  8C 0 0  71  92 111  00  00  00  175   81    0---...
  9C 0 0  82 101 141  00  00  00  175  109    0---...
 10C 0 0  51  91 206  00  00  00  139  123    0---...
 11C 0 0  81 122 235  00  00  00  211   67    0---...
 12C 0 0 112 131 151  00  00  00  247   81    0---...
 13C 0 0 121 142 181  00  00  00  247  109    0---...
 14C 0 0  91 132 225  00  00  00  211  123    0---...
 15C 2 0 121 161  00  00  00  00  283   67    0--....
 16C 0 0 151 171 315 355  00  00  319   81    0----..
 17C 2 0 161 181  00  00  00  00  319  109    0--....
 18C 1 0 131 171 325  00  00  00  283  123    0---...
 19O 0 0  45 405  00  00  00  00   67  151    0--....
 20O 0 0 106  00  00  00  00  00  139  151    0-.....
 21O 0 0  76  00  00  00  00  00  139   39    0-.....
 22O 1 0 145  00  00  00  00  00  211  151    0-.....
 23O 1 0 115  00  00  00  00  00  211   39    0-.....
 24C 1 0 251 291 325  00  00  00  283  151    0---...
 25O 0 0 241 261  00  00  00  00  247  165    0--....
 26C 1 0 251 271 335  00  00  00  247  193    0---...
 27C 1 0 261 281 305  00  00  00  283  207    0---...
 28C 1 0 271 291 345  00  00  00  319  193    0---...
 29C 2 0 241 281  00  00  00  00  319  165    0--....
 30O 1 0 275  00  00  00  00  00  283  235    0-.....
 31O 1 0 165  00  00  00  00  00  340  105    0-.....
 32O 0 0 185 245  00  00  00  00  319  137    0--....
 33C 3 0 265  00  00  00  00  00  211  207    0-.....
 34N 0 0 285 396  00  00  00  00  355  207    0--....
 35C 0 0 165 365 376  00  00  00  361   81    0---...
 36C 3 0 355  00  00  00  00  00  397   95    0-.....
 37O 0 0 356  00  00  00  00  00  382   57    0-.....
 38N 0 0 395 415 425  00  00  00  418  231    0---...
 39C 1 0 346 385  00  00  00  00  376  231    0--....
 40C 3 0 195  00  00  00  00  00   88  175    0-.....
 41C 3 0 385  00  00  00  00  00  439  207    0-.....
 42C 3 0 385  00  00  00  00  00  439  255    0-.....
86      41  C29H32N2O10          1
  1C 1 0  22  61  00  00  00  00   67   67    0--....
  2C 1 0  12  31  00  00  00  00   31   81    0--....
  3C 1 0  21  42  00  00  00  00   31  109    0--....
  4C 0 0  32  51 195  00  00  00   67  123    0---...
  5C 0 0  41  62 101  00  00  00  103  109    0---...
  6C 0 0  11  52  71  00  00  00  103   81    0---...
  7C 0 0  61  81 216  00  00  00  139   67    0---...
  8C 0 0  71  92 111  00  00  00  175   81    0---...
  9C 0 0  82 101 141  00  00  00  175  109    0---...
 10C 0 0  51  91 206  00  00  00  139  123    0---...
 11C 0 0  81 122 235  00  00  00  211   67    0---...
 12C 0 0 112 131 151  00  00  00  247   81    0---...
 13C 0 0 121 142 181  00  00  00  247  109    0---...
 14C 0 0  91 132 225  00  00  00  211  123    0---...
 15C 2 0 121 161  00  00  00  00  283   67    0--....
 16C 0 0 151 171 315 355  00  00  319   81    0----..
 17C 2 0 161 181  00  00  00  00  319  109    0--....
 18C 1 0 131 171 325  00  00  00  283  123    0---...
 19O 1 0  45  00  00  00  00  00   67  151    0-.....
 20O 0 0 106  00  00  00  00  00  139  151    0-.....
 21O 0 0  76  00  00  00  00  00  139   39    0-.....
 22O 1 0 145  00  00  00  00  00  211  151    0-.....
 23O 1 0 115  00  00  00  00  00  211   39    0-.....
 24C 1 0 251 291 325  00  00  00  283  151    0---...
 25O 0 0 241 261  00  00  00  00  247  165    0--....
 26C 1 0 251 271 335  00  00  00  247  193    0---...
 27C 1 0 261 281 305  00  00  00  283  207    0---...
 28C 1 0 271 291 345  00  00  00  319  193    0---...
 29C 2 0 241 281  00  00  00  00  319  165    0--....
 30O 1 0 275  00  00  00  00  00  283  235    0-.....
 31O 1 0 165  00  00  00  00  00  340  105    0-.....
 32O 0 0 185 245  00  00  00  00  319  137    0--....
 33C 3 0 265  00  00  00  00  00  211  207    0-.....
 34N 0 0 285 396  00  00  00  00  355  207    0--....
 35C 0 0 165 365 376  00  00  00  361   81    0---...
 36C 3 0 355  00  00  00  00  00  397   95    0-.....
 37O 0 0 356  00  00  00  00  00  382   57    0-.....
 38N 0 0 395 405 415  00  00  00  418  231    0---...
 39C 1 0 346 385  00  00  00  00  376  231    0--....
 40C 3 0 385  00  00  00  00  00  439  207    0-.....
 41C 3 0 385  00  00  00  00  00  439  255    0-.....
87      43  C30H34N2O11          1
  1C 1 0  22  61  00  00  00  00   67   67    0--....
  2C 1 0  12  31  00  00  00  00   31   81    0--....
  3C 1 0  21  42  00  00  00  00   31  109    0--....
  4C 0 0  32  51 195  00  00  00   67  123    0---...
  5C 0 0  41  62 101  00  00  00  103  109    0---...
  6C 0 0  11  52  71  00  00  00  103   81    0---...
  7C 0 0  61  81 216  00  00  00  139   67    0---...
  8C 0 0  71  92 111  00  00  00  175   81    0---...
  9C 0 0  82 101 141  00  00  00  175  109    0---...
 10C 0 0  51  91 206  00  00  00  139  123    0---...
 11C 0 0  81 122 235  00  00  00  211   67    0---...
 12C 0 0 112 131 151  00  00  00  247   81    0---...
 13C 0 0 121 142 181  00  00  00  247  109    0---...
 14C 0 0  91 132 225  00  00  00  211  123    0---...
 15C 2 0 121 161  00  00  00  00  283   67    0--....
 16C 0 0 151 171 315 355  00  00  319   81    0----..
 17C 2 0 161 181  00  00  00  00  319  109    0--....
 18C 1 0 131 171 325  00  00  00  283  123    0---...
 19O 0 0  45 425  00  00  00  00   67  151    0--....
 20O 0 0 106  00  00  00  00  00  139  151    0-.....
 21O 0 0  76  00  00  00  00  00  139   39    0-.....
 22O 1 0 145  00  00  00  00  00  211  151    0-.....
 23O 1 0 115  00  00  00  00  00  211   39    0-.....
 24C 1 0 251 291 325  00  00  00  283  151    0---...
 25O 0 0 241 261  00  00  00  00  247  165    0--....
 26C 1 0 251 271 335  00  00  00  247  193    0---...
 27C 1 0 261 281 305  00  00  00  283  207    0---...
 28C 1 0 271 291 345  00  00  00  319  193    0---...
 29C 2 0 241 281  00  00  00  00  319  165    0--....
 30O 1 0 275  00  00  00  00  00  283  235    0-.....
 31O 1 0 165  00  00  00  00  00  340  105    0-.....
 32O 0 0 185 245  00  00  00  00  319  137    0--....
 33C 3 0 265  00  00  00  00  00  211  207    0-.....
 34N 0 0 285 396  00  00  00  00  355  207    0--....
 35C 0 0 165 365 376  00  00  00  361   81    0---...
 36C 2 0 355 435  00  00  00  00  397   95    0--....
 37O 0 0 356  00  00  00  00  00  382   57    0-.....
 38N 0 0 395 405 415  00  00  00  418  231    0---...
 39C 1 0 346 385  00  00  00  00  376  231    0--....
 40C 3 0 385  00  00  00  00  00  439  207    0-.....
 41C 3 0 385  00  00  00  00  00  439  255    0-.....
 42C 3 0 195  00  00  00  00  00   88  175    0-.....
 43O 1 0 365  00  00  00  00  00  439   95    0-.....
