1       26  C12F6H12N2O6         1                    
  1O 0 0  21  51  00  00  00  00  141  111    0--.... 
  2C 1 0  11  31 125  00  00  00  105  125    0---... 
  3C 1 0  21  41 145  00  00  00  126  149    0---... 
  4C 2 0  31  51  00  00  00  00  168  149    0--.... 
  5C 1 0  11  41  95  00  00  00  189  125    0---... 
  6C 0 0  71 111 256  00  00  00  200  235    0---... 
  7C 0 0  61  82 155  00  00  00  164  221    0---... 
  8C 1 0  72  91  00  00  00  00  164  193    0--.... 
  9N 0 0  55  81 101  00  00  00  200  179    0---... 
 10C 0 0  91 111 266  00  00  00  236  193    0---... 
 11N 1 0  61 101  00  00  00  00  236  221    0--.... 
 12C 2 0  25 135  00  00  00  00  105   97    0--.... 
 13O 1 0 125  00  00  00  00  00   63   97    0-..... 
 14O 1 0  35  00  00  00  00  00  125  166    0-..... 
 15C 0 0  75 165 205 245  00  00  122  221    0----.. 
 16C 0 0 155 175 185 195  00  00  101  197    0----.. 
 17F 0 0 165  00  00  00  00  00   59  197    0-..... 
 18F 0 0 165  00  00  00  00  00   65  183    0-..... 
 19F 0 0 165  00  00  00  00  00   80  173    0-..... 
 20C 0 0 155 215 225 235  00  00   80  221    0----.. 
 21F 0 0 205  00  00  00  00  00   44  207    0-..... 
 22F 0 0 205  00  00  00  00  00   38  221    0-..... 
 23F 0 0 205  00  00  00  00  00   44  235    0-..... 
 24O 1 0 155  00  00  00  00  00  122  249    0-..... 
 25O 0 0  66  00  00  00  00  00  200  263    0-..... 
 26O 0 0 106  00  00  00  00  00  272  179    0-..... 
2       26  C12F6H12N2O6         1                    
  1C 0 0  21  61 176  00  00  00  256   70    0---... 
  2C 0 0  11  32  75  00  00  00  292   84    0---... 
  3C 1 0  22  41  00  00  00  00  292  112    0--.... 
  4N 0 0  31  51 195  00  00  00  256  126    0---... 
  5C 0 0  41  61 186  00  00  00  220  112    0---... 
  6N 1 0  11  51  00  00  00  00  220   84    0--.... 
  7C 0 0  25  85 125 165  00  00  334   84    0----.. 
  8C 0 0  75  95 105 115  00  00  355  108    0----.. 
  9F 0 0  85  00  00  00  00  00  398  108    0-..... 
 10F 0 0  85  00  00  00  00  00  391  122    0-..... 
 11F 0 0  85  00  00  00  00  00  376  132    0-..... 
 12C 0 0  75 135 145 155  00  00  376   84    0----.. 
 13F 0 0 125  00  00  00  00  00  411   98    0-..... 
 14F 0 0 125  00  00  00  00  00  418   84    0-..... 
 15F 0 0 125  00  00  00  00  00  411   70    0-..... 
 16O 1 0  75  00  00  00  00  00  334   56    0-..... 
 17O 0 0  16  00  00  00  00  00  256   42    0-..... 
 18O 0 0  56  00  00  00  00  00  185  126    0-..... 
 19C 1 0  45 201 231  00  00  00  254  178    0---... 
 20O 0 0 191 211  00  00  00  00  218  164    0--.... 
 21C 1 0 201 221 245  00  00  00  182  178    0---... 
 22C 1 0 211 231 265  00  00  00  203  202    0---... 
 23C 2 0 221 191  00  00  00  00  245  202    0--.... 
 24C 2 0 215 255  00  00  00  00  161  154    0--.... 
 25O 1 0 245  00  00  00  00  00  119  154    0-..... 
 26O 1 0 225  00  00  00  00  00  203  230    0-..... 
3       18  C7F7H3N2O2           1                    
  1N 1 0  21  61  00  00  00  00  170  163    0--.... 
  2C 0 0  11  31  86  00  00  00  134  149    0---... 
  3N 1 0  21  41  00  00  00  00  134  121    0--.... 
  4C 0 0  31  51  76  00  00  00  170  107    0---... 
  5C 0 0  41  62  95  00  00  00  206  121    0---... 
  6C 1 0  52  11  00  00  00  00  206  149    0--.... 
  7O 0 0  46  00  00  00  00  00  170   79    0-..... 
  8O 0 0  26  00  00  00  00  00   98  163    0-..... 
  9C 0 0  55 105 115 155  00  00  242  107    0----.. 
 10F 0 0  95  00  00  00  00  00  242   79    0-..... 
 11C 0 0  95 125 135 145  00  00  284  107    0----.. 
 12F 0 0 115  00  00  00  00  00  305   83    0-..... 
 13F 0 0 115  00  00  00  00  00  320   93    0-..... 
 14F 0 0 115  00  00  00  00  00  326  107    0-..... 
 15C 0 0  95 165 175 185  00  00  263  131    0----.. 
 16F 0 0 155  00  00  00  00  00  305  131    0-..... 
 17F 0 0 155  00  00  00  00  00  299  145    0-..... 
 18F 0 0 155  00  00  00  00  00  263  159    0-..... 
4       26  C12F6H13N3O5         1                    
  1N 0 0  21  61 195  00  00  00  170  163    0---... 
  2C 0 0  11  31  86  00  00  00  134  149    0---... 
  3N 1 0  21  41  00  00  00  00  134  121    0--.... 
  4C 0 0  31  51  76  00  00  00  170  107    0---... 
  5C 0 0  41  62  95  00  00  00  206  121    0---... 
  6C 1 0  11  52  00  00  00  00  206  149    0--.... 
  7O 0 0  46  00  00  00  00  00  170   79    0-..... 
  8O 0 0  26  00  00  00  00  00   98  163    0-..... 
  9C 0 0  55 105 145 185  00  00  242  107    0----.. 
 10C 0 0  95 115 125 135  00  00  284  107    0----.. 
 11F 0 0 105  00  00  00  00  00  305   83    0-..... 
 12F 0 0 105  00  00  00  00  00  320   93    0-..... 
 13F 0 0 105  00  00  00  00  00  326  107    0-..... 
 14C 0 0  95 155 165 175  00  00  263  131    0----.. 
 15F 0 0 145  00  00  00  00  00  305  131    0-..... 
 16F 0 0 145  00  00  00  00  00  299  145    0-..... 
 17F 0 0 145  00  00  00  00  00  263  159    0-..... 
 18N 2 0  95  00  00  00  00  00  242   79    0-..... 
 19C 1 0  15 201 231  00  00  00  170  191    0---... 
 20O 0 0 191 211  00  00  00  00  134  177    0--.... 
 21C 1 0 201 221 255  00  00  00   98  191    0---... 
 22C 1 0 211 231 245  00  00  00  119  215    0---... 
 23C 2 0 221 191  00  00  00  00  161  215    0--.... 
 24O 1 0 225  00  00  00  00  00  119  243    0-..... 
 25C 2 0 215 265  00  00  00  00   56  191    0--.... 
 26O 1 0 255  00  00  00  00  00   35  167    0-..... 
5       27  C12F6H13N3O6         1                    
  1N 0 0  21  61 195  00  00  00  170  163    0---... 
  2C 0 0  11  31  86  00  00  00  134  149    0---... 
  3N 1 0  21  41  00  00  00  00  134  121    0--.... 
  4C 0 0  31  51  76  00  00  00  170  107    0---... 
  5C 0 0  41  62  95  00  00  00  206  121    0---... 
  6C 1 0  11  52  00  00  00  00  206  149    0--.... 
  7O 0 0  46  00  00  00  00  00  170   79    0-..... 
  8O 0 0  26  00  00  00  00  00   98  163    0-..... 
  9C 0 0  55 105 145 185  00  00  242  107    0----.. 
 10C 0 0  95 115 125 135  00  00  284  107    0----.. 
 11F 0 0 105  00  00  00  00  00  305   83    0-..... 
 12F 0 0 105  00  00  00  00  00  320   93    0-..... 
 13F 0 0 105  00  00  00  00  00  326  107    0-..... 
 14C 0 0  95 155 165 175  00  00  263  131    0----.. 
 15F 0 0 145  00  00  00  00  00  305  131    0-..... 
 16F 0 0 145  00  00  00  00  00  299  145    0-..... 
 17F 0 0 145  00  00  00  00  00  263  159    0-..... 
 18N 2 0  95  00  00  00  00  00  242   79    0-..... 
 19C 1 0  15 201 231  00  00  00  170  191    0---... 
 20O 0 0 191 211  00  00  00  00  134  177    0--.... 
 21C 1 0 201 221 255  00  00  00   98  191    0---... 
 22C 1 0 211 231 245  00  00  00  119  215    0---... 
 23C 1 0 191 221 275  00  00  00  161  215    0---... 
 24O 1 0 225  00  00  00  00  00  119  243    0-..... 
 25C 2 0 215 265  00  00  00  00   56  191    0--.... 
 26O 1 0 255  00  00  00  00  00   35  167    0-..... 
 27O 1 0 235  00  00  00  00  00  161  243    0-..... 
6       18  C7F6H5N3O2           1                    
  1N 1 0  21  61  00  00  00  00  170  163    0--.... 
  2C 0 0  11  31  86  00  00  00  134  149    0---... 
  3N 1 0  21  41  00  00  00  00  134  121    0--.... 
  4C 0 0  31  51  76  00  00  00  170  107    0---... 
  5C 0 0  41  62  95  00  00  00  206  121    0---... 
  6C 1 0  11  52  00  00  00  00  206  149    0--.... 
  7O 0 0  46  00  00  00  00  00  170   79    0-..... 
  8O 0 0  26  00  00  00  00  00   98  163    0-..... 
  9C 0 0  55 105 115 155  00  00  242  107    0----.. 
 10N 2 0  95  00  00  00  00  00  242   79    0-..... 
 11C 0 0  95 125 135 145  00  00  284  107    0----.. 
 12F 0 0 115  00  00  00  00  00  305   83    0-..... 
 13F 0 0 115  00  00  00  00  00  320   93    0-..... 
 14F 0 0 115  00  00  00  00  00  326  107    0-..... 
 15C 0 0  95 165 175 185  00  00  263  131    0----.. 
 16F 0 0 155  00  00  00  00  00  305  131    0-..... 
 17F 0 0 155  00  00  00  00  00  299  145    0-..... 
 18F 0 0 155  00  00  00  00  00  263  159    0-..... 
7       32  C14F9H12N3O6         1                    
  1N 0 0  21  61 195  00  00  00  178   99    0---... 
  2C 0 0  11  31  86  00  00  00  214  113    0---... 
  3N 1 0  21  41  00  00  00  00  214  141    0--.... 
  4C 0 0  31  51  76  00  00  00  178  155    0---... 
  5C 0 0  41  62  95  00  00  00  142  141    0---... 
  6C 1 0  11  52  00  00  00  00  142  113    0--.... 
  7O 0 0  46  00  00  00  00  00  178  183    0-..... 
  8O 0 0  26  00  00  00  00  00  250   99    0-..... 
  9C 0 0  55 105 145 185  00  00  106  155    0----.. 
 10C 0 0  95 115 125 135  00  00   64  155    0----.. 
 11F 0 0 105  00  00  00  00  00   43  179    0-..... 
 12F 0 0 105  00  00  00  00  00   28  169    0-..... 
 13F 0 0 105  00  00  00  00  00   22  155    0-..... 
 14C 0 0  95 155 165 175  00  00   85  131    0----.. 
 15F 0 0 145  00  00  00  00  00   43  131    0-..... 
 16F 0 0 145  00  00  00  00  00   49  117    0-..... 
 17F 0 0 145  00  00  00  00  00   85  103    0-..... 
 18N 1 0  95 275  00  00  00  00  106  183    0--.... 
 19C 1 0  15 201 231  00  00  00  178   71    0---... 
 20O 0 0 191 211  00  00  00  00  136   48    0--.... 
 21C 1 0 201 221 255  00  00  00   92   67    0---... 
 22C 1 0 211 231 245  00  00  00  113   80    0---... 
 23C 2 0 191 221  00  00  00  00  151   85    0--.... 
 24O 1 0 225  00  00  00  00  00  111  108    0-..... 
 25C 2 0 215 265  00  00  00  00   75   40    0--.... 
 26O 1 0 255  00  00  00  00  00   30   45    0-..... 
 27C 0 0 185 286 295  00  00  00  127  207    0---... 
 28O 0 0 276  00  00  00  00  00   91  221    0-..... 
 29C 0 0 275 305 315 325  00  00  163  221    0----.. 
 30F 0 0 295  00  00  00  00  00  205  221    0-..... 
 31F 0 0 295  00  00  00  00  00  199  235    0-..... 
 32F 0 0 295  00  00  00  00  00  199  207    0-..... 
8       32  C14F9H12N3O6         1                    
  1N 0 0  21  61 195  00  00  00  170  163    0---... 
  2C 0 0  11  31  86  00  00  00  134  149    0---... 
  3N 1 0  21  41  00  00  00  00  134  121    0--.... 
  4C 0 0  31  51  76  00  00  00  170  107    0---... 
  5C 0 0  41  62  95  00  00  00  206  121    0---... 
  6C 1 0  11  52  00  00  00  00  206  149    0--.... 
  7O 0 0  46  00  00  00  00  00  170   79    0-..... 
  8O 0 0  26  00  00  00  00  00   98  163    0-..... 
  9C 0 0  55 105 145 185  00  00  242  107    0----.. 
 10C 0 0  95 115 125 135  00  00  284  107    0----.. 
 11F 0 0 105  00  00  00  00  00  305   83    0-..... 
 12F 0 0 105  00  00  00  00  00  320   93    0-..... 
 13F 0 0 105  00  00  00  00  00  326  107    0-..... 
 14C 0 0  95 155 165 175  00  00  263  131    0----.. 
 15F 0 0 145  00  00  00  00  00  305  131    0-..... 
 16F 0 0 145  00  00  00  00  00  299  145    0-..... 
 17F 0 0 145  00  00  00  00  00  263  159    0-..... 
 18N 1 0  95 275  00  00  00  00  242   79    0--.... 
 19C 1 0  15 201 231  00  00  00  170  191    0---... 
 20O 0 0 191 211  00  00  00  00  134  177    0--.... 
 21C 1 0 201 221 255  00  00  00   98  191    0---... 
 22C 1 0 211 231 245  00  00  00  119  215    0---... 
 23C 2 0 191 221  00  00  00  00  161  215    0--.... 
 24O 1 0 225  00  00  00  00  00  119  243    0-..... 
 25C 2 0 215 265  00  00  00  00   56  191    0--.... 
 26O 1 0 255  00  00  00  00  00   35  167    0-..... 
 27C 0 0 185 286 295  00  00  00  221   55    0---... 
 28O 0 0 276  00  00  00  00  00  257   41    0-..... 
 29C 0 0 275 305 315 325  00  00  185   41    0----.. 
 30F 0 0 295  00  00  00  00  00  143   41    0-..... 
 31F 0 0 295  00  00  00  00  00  149   27    0-..... 
 32F 0 0 295  00  00  00  00  00  149   55    0-..... 
9       23  C12F4H14N2O5         1                    
  1N 0 0  21  61 125  00  00  00  214   93    0---... 
  2C 0 0  11  31  86  00  00  00  250  107    0---... 
  3N 1 0  21  41  00  00  00  00  250  135    0--.... 
  4C 0 0  31  51  76  00  00  00  214  149    0---... 
  5C 0 0  41  62  95  00  00  00  178  135    0---... 
  6C 1 0  11  52  00  00  00  00  178  107    0--.... 
  7O 0 0  46  00  00  00  00  00  214  177    0-..... 
  8O 0 0  26  00  00  00  00  00  286   93    0-..... 
  9C 2 0  55 105  00  00  00  00  142  149    0--.... 
 10C 1 0  95 115 215  00  00  00  100  149    0---... 
 11C 0 0 105 205 225 235  00  00   64  163    0----.. 
 12C 1 0  15 131 151  00  00  00  214   65    0---... 
 13O 0 0 121 141  00  00  00  00  172   42    0--.... 
 14C 1 0 131 165 181  00  00  00  128   61    0---... 
 15C 2 0 121 181  00  00  00  00  187   79    0--.... 
 16C 2 0 145 175  00  00  00  00  111   34    0--.... 
 17O 1 0 165  00  00  00  00  00   66   39    0-..... 
 18C 1 0 151 141 195  00  00  00  145   79    0---... 
 19O 1 0 185  00  00  00  00  00  145  107    0-..... 
 20F 0 0 115  00  00  00  00  00   64  191    0-..... 
 21F 0 0 105  00  00  00  00  00  100  177    0-..... 
 22F 0 0 115  00  00  00  00  00   85  187    0-..... 
 23F 0 0 115  00  00  00  00  00   64  135    0-..... 
10      23  C12F4H14N2O5         1                    
  1N 0 0  21  61 135  00  00  00  170  163    0---... 
  2C 0 0  11  31  86  00  00  00  134  149    0---... 
  3N 1 0  21  41  00  00  00  00  134  121    0--.... 
  4C 0 0  31  51  76  00  00  00  170  107    0---... 
  5C 0 0  41  62  95  00  00  00  206  121    0---... 
  6C 1 0  11  52  00  00  00  00  206  149    0--.... 
  7O 0 0  46  00  00  00  00  00  170   79    0-..... 
  8O 0 0  26  00  00  00  00  00   98  163    0-..... 
  9C 2 0  55 105  00  00  00  00  242  107    0--.... 
 10C 1 0  95 115 125  00  00  00  284  107    0---... 
 11C 0 0 105 215 225 235  00  00  320   93    0----.. 
 12F 0 0 105  00  00  00  00  00  305  131    0-..... 
 13C 1 0  15 141 171  00  00  00  170  191    0---... 
 14O 0 0 131 151  00  00  00  00  134  177    0--.... 
 15C 1 0 141 161 195  00  00  00   98  191    0---... 
 16C 1 0 151 171 185  00  00  00  119  215    0---... 
 17C 2 0 131 161  00  00  00  00  161  215    0--.... 
 18O 1 0 165  00  00  00  00  00  119  243    0-..... 
 19C 2 0 155 205  00  00  00  00   56  191    0--.... 
 20O 1 0 195  00  00  00  00  00   35  167    0-..... 
 21F 0 0 115  00  00  00  00  00  356  107    0-..... 
 22F 0 0 115  00  00  00  00  00  356   79    0-..... 
 23F 0 0 115  00  00  00  00  00  320   65    0-..... 
11      22  C12F3H15N2O5         1                    
  1N 0 0  21  61 125  00  00  00  170  163    0---... 
  2C 0 0  11  31  86  00  00  00  134  149    0---... 
  3N 1 0  21  41  00  00  00  00  134  121    0--.... 
  4C 0 0  31  51  76  00  00  00  170  107    0---... 
  5C 0 0  41  62  95  00  00  00  206  121    0---... 
  6C 1 0  11  52  00  00  00  00  206  149    0--.... 
  7O 0 0  46  00  00  00  00  00  170   79    0-..... 
  8O 0 0  26  00  00  00  00  00   98  163    0-..... 
  9C 2 0  55 105  00  00  00  00  242  107    0--.... 
 10C 2 0  95 115  00  00  00  00  284  107    0--.... 
 11C 0 0 105 205 215 225  00  00  320   93    0----.. 
 12C 1 0  15 131 161  00  00  00  170  191    0---... 
 13O 0 0 121 141  00  00  00  00  134  177    0--.... 
 14C 1 0 131 151 185  00  00  00   98  191    0---... 
 15C 1 0 141 161 175  00  00  00  119  215    0---... 
 16C 2 0 121 151  00  00  00  00  161  215    0--.... 
 17O 1 0 155  00  00  00  00  00  119  243    0-..... 
 18C 2 0 145 195  00  00  00  00   56  191    0--.... 
 19O 1 0 185  00  00  00  00  00   35  167    0-..... 
 20F 0 0 115  00  00  00  00  00  356  107    0-..... 
 21F 0 0 115  00  00  00  00  00  356   79    0-..... 
 22F 0 0 115  00  00  00  00  00  320   65    0-..... 
12      23  C12F3H15N2O6         1                    
  1N 0 0  21  61 125  00  00  00  214   93    0---... 
  2C 0 0  11  31  86  00  00  00  250  107    0---... 
  3N 1 0  21  41  00  00  00  00  250  135    0--.... 
  4C 0 0  31  51  76  00  00  00  214  149    0---... 
  5C 0 0  41  62  95  00  00  00  178  135    0---... 
  6C 1 0  11  52  00  00  00  00  178  107    0--.... 
  7O 0 0  46  00  00  00  00  00  214  177    0-..... 
  8O 0 0  26  00  00  00  00  00  286   93    0-..... 
  9C 2 0  55 235  00  00  00  00  142  149    0--.... 
 10C 2 0 115 235  00  00  00  00  100  149    0--.... 
 11C 0 0 105 205 215 225  00  00   64  163    0----.. 
 12C 1 0  15 131 151  00  00  00  214   65    0---... 
 13O 0 0 121 141  00  00  00  00  172   42    0--.... 
 14C 1 0 131 165 181  00  00  00  128   61    0---... 
 15C 2 0 121 181  00  00  00  00  187   79    0--.... 
 16C 2 0 145 175  00  00  00  00  111   34    0--.... 
 17O 1 0 165  00  00  00  00  00   66   39    0-..... 
 18C 1 0 141 151 195  00  00  00  145   79    0---... 
 19O 1 0 185  00  00  00  00  00  145  107    0-..... 
 20F 0 0 115  00  00  00  00  00   64  191    0-..... 
 21F 0 0 115  00  00  00  00  00   85  187    0-..... 
 22F 0 0 115  00  00  00  00  00   64  135    0-..... 
 23O 0 0 105  95  00  00  00  00  121  173    0--.... 
13      19  C14FH11N2OS          1                    
  1C 1 0  22  61  00  00  00  00  132  172    0--.... 
  2C 1 0  12  31  00  00  00  00   96  158    0--.... 
  3C 1 0  21  42  00  00  00  00   96  130    0--.... 
  4C 0 0  32  51 145  00  00  00  132  116    0---... 
  5C 1 0  41  62  00  00  00  00  168  130    0--.... 
  6C 0 0  52  11 185  00  00  00  168  158    0---... 
  7C 1 0  82 121  00  00  00  00  311  169    0--.... 
  8C 1 0  72  91  00  00  00  00  275  155    0--.... 
  9C 0 0  81 102 165  00  00  00  275  127    0---... 
 10C 1 0  92 111  00  00  00  00  311  113    0--.... 
 11C 1 0 101 122  00  00  00  00  347  127    0--.... 
 12C 0 0 112  71 195  00  00  00  347  155    0---... 
 13S 0 0 141 161  00  00  00  00  211   93    0--.... 
 14C 0 0 131 152  45  00  00  00  175   79    0---... 
 15N 0 0 142 171  00  00  00  00  175   51    0--.... 
 16C 1 0 131 171  95  00  00  00  247   79    0---... 
 17N 1 0 161 151  00  00  00  00  247   51    0--.... 
 18O 1 0  65  00  00  00  00  00  189  182    0-..... 
 19F 0 0 125  00  00  00  00  00  368  179    0-..... 
14      20  C12FH11N4O2S         1                    
  1C 0 0  21  51  66  00  00  00   99  111    0---... 
  2N 0 0  11  31 175  00  00  00  141  111    0---... 
  3C 0 0  21  41  76  00  00  00  141  139    0---... 
  4S 0 0  31  51  00  00  00  00  120  163    0--.... 
  5C 2 0  41  11  00  00  00  00   99  139    0--.... 
  6O 0 0  16  00  00  00  00  00   63   97    0-..... 
  7N 0 0  36  85  00  00  00  00  162  163    0--.... 
  8N 0 0  75  96  00  00  00  00  204  163    0--.... 
  9C 1 0  86 135  00  00  00  00  240  177    0--.... 
 10C 1 0 112 151  00  00  00  00  370  183    0--.... 
 11C 1 0 102 121  00  00  00  00  349  207    0--.... 
 12C 0 0 111 132 165  00  00  00  307  207    0---... 
 13C 0 0 122 141  95  00  00  00  286  183    0---... 
 14C 1 0 131 152  00  00  00  00  307  159    0--.... 
 15C 1 0 142 101  00  00  00  00  349  159    0--.... 
 16F 0 0 125  00  00  00  00  00  307  235    0-..... 
 17N 1 0  25 185  00  00  00  00  177   97    0--.... 
 18C 0 0 175 196 205  00  00  00  219   97    0---... 
 19O 0 0 186  00  00  00  00  00  219   69    0-..... 
 20C 3 0 185  00  00  00  00  00  255  111    0-..... 
15      20  C12FH11N4O2S         1                    
  1C 0 0  21  51  66  00  00  00   99  111    0---... 
  2N 0 0  11  31 165  00  00  00  141  111    0---... 
  3C 0 0  21  41  76  00  00  00  141  139    0---... 
  4S 0 0  31  51  00  00  00  00  120  163    0--.... 
  5C 2 0  11  41  00  00  00  00   99  139    0--.... 
  6O 0 0  16  00  00  00  00  00   63   97    0-..... 
  7N 0 0  36  85  00  00  00  00  162  163    0--.... 
  8N 0 0  75  96  00  00  00  00  204  163    0--.... 
  9C 1 0  86 135  00  00  00  00  240  177    0--.... 
 10C 0 0 112 151 205  00  00  00  370  183    0---... 
 11C 1 0 102 121  00  00  00  00  349  207    0--.... 
 12C 1 0 111 132  00  00  00  00  307  207    0--.... 
 13C 0 0  95 122 141  00  00  00  286  183    0---... 
 14C 1 0 131 152  00  00  00  00  307  159    0--.... 
 15C 1 0 101 142  00  00  00  00  349  159    0--.... 
 16N 1 0  25 175  00  00  00  00  177   97    0--.... 
 17C 0 0 165 186 195  00  00  00  219   97    0---... 
 18O 0 0 176  00  00  00  00  00  219   69    0-..... 
 19C 3 0 175  00  00  00  00  00  255  111    0-..... 
 20F 0 0 105  00  00  00  00  00  412  183    0-..... 
16      16  C10FH8N3S2           1                    
  1C 0 0  22  61  85  00  00  00  139  147    0---... 
  2C 0 0  12  31  75  00  00  00  118  171    0---... 
  3C 1 0  21  42  00  00  00  00   76  171    0--.... 
  4C 1 0  32  51  00  00  00  00   55  147    0--.... 
  5C 1 0  41  62  00  00  00  00   76  123    0--.... 
  6C 1 0  52  11  00  00  00  00  118  123    0--.... 
  7F 0 0  25  00  00  00  00  00  139  195    0-..... 
  8C 1 0  15  96  00  00  00  00  160  123    0--.... 
  9N 0 0  86 105  00  00  00  00  202  123    0--.... 
 10N 0 0  95 116  00  00  00  00  223  147    0--.... 
 11C 0 0 106 121 151  00  00  00  265  147    0---... 
 12C 2 0 111 131  00  00  00  00  265  175    0--.... 
 13S 0 0 121 141  00  00  00  00  286  199    0--.... 
 14C 0 0 131 151 166  00  00  00  307  175    0---... 
 15N 1 0 141 111  00  00  00  00  307  147    0--.... 
 16S 0 0 146  00  00  00  00  00  328  199    0-..... 
17      16  C10FH8N3S2           1                    
  1C 0 0  22  61  75  00  00  00  186  152    0---... 
  2C 1 0  12  31  00  00  00  00  165  176    0--.... 
  3C 1 0  21  42  00  00  00  00  123  176    0--.... 
  4C 0 0  32  51 165  00  00  00  102  152    0---... 
  5C 1 0  41  62  00  00  00  00  123  128    0--.... 
  6C 1 0  11  52  00  00  00  00  165  128    0--.... 
  7C 1 0  15  86  00  00  00  00  207  128    0--.... 
  8N 0 0  76  95  00  00  00  00  249  128    0--.... 
  9N 0 0  85 106  00  00  00  00  270  152    0--.... 
 10C 0 0  96 111 141  00  00  00  312  152    0---... 
 11C 2 0 101 121  00  00  00  00  312  180    0--.... 
 12S 0 0 111 131  00  00  00  00  333  204    0--.... 
 13C 0 0 121 141 156  00  00  00  354  180    0---... 
 14N 1 0 101 131  00  00  00  00  354  152    0--.... 
 15S 0 0 136  00  00  00  00  00  375  204    0-..... 
 16F 0 0  45  00  00  00  00  00   60  152    0-..... 
18      20  C15Cl2FH12NO         1                    
  1C 1 0  22  61  00  00  00  00  324  117    0--.... 
  2C 1 0  12  31  00  00  00  00  303  141    0--.... 
  3C 1 0  21  42  00  00  00  00  261  141    0--.... 
  4C 0 0  32  51 135  00  00  00  240  117    0---... 
  5C 1 0  41  62  00  00  00  00  261   93    0--.... 
  6C 1 0  52  11  00  00  00  00  303   93    0--.... 
  7C 0 0  82 121 205  00  00  00  153  215    0---... 
  8C 1 0  72  91  00  00  00  00  117  201    0--.... 
  9C 1 0  81 102  00  00  00  00  117  173    0--.... 
 10C 0 0  92 111 165  00  00  00  153  159    0---... 
 11C 1 0 101 122  00  00  00  00  189  173    0--.... 
 12C 1 0 112  71  00  00  00  00  189  201    0--.... 
 13C 0 0  45 146 155  00  00  00  204  103    0---... 
 14O 0 0 136  00  00  00  00  00  204   75    0-..... 
 15N 1 0 135 165  00  00  00  00  162  103    0--.... 
 16C 1 0 155 105 175  00  00  00  141  127    0---... 
 17C 1 0 165 185 195  00  00  00   99  127    0---... 
 18CL0 0 175  00  00  00  00  00   78  103    0-..... 
 19CL0 0 175  00  00  00  00  00   63  141    0-..... 
 20F 0 0  75  00  00  00  00  00  153  243    0-..... 
19      24  C15F3H11N2O4         1                    
  1C 0 0  22  61 135  00  00  00  134  134    0---... 
  2C 1 0  12  31  00  00  00  00  113  158    0--.... 
  3C 1 0  21  42  00  00  00  00   71  158    0--.... 
  4C 1 0  32  51  00  00  00  00   50  134    0--.... 
  5C 1 0  41  62  00  00  00  00   71  110    0--.... 
  6C 1 0  52  11  00  00  00  00  113  110    0--.... 
  7C 0 0  82 121 185  00  00  00  360  140    0---... 
  8C 0 0  72  91 195  00  00  00  339  164    0---... 
  9C 1 0  81 102  00  00  00  00  297  164    0--.... 
 10C 0 0  92 111 175  00  00  00  276  140    0---... 
 11C 1 0 101 122  00  00  00  00  297  116    0--.... 
 12C 1 0 112  71  00  00  00  00  339  116    0--.... 
 13C 0 0  15 146 155  00  00  00  155  158    0---... 
 14O 0 0 136  00  00  00  00  00  155  186    0-..... 
 15C 1 0 135 165 175  00  00  00  191  144    0---... 
 16O 1 0 155  00  00  00  00  00  191  172    0-..... 
 17N 1 0 155 105  00  00  00  00  233  144    0--.... 
 18N 0 0  75 236 246  00  00  00  402  140    0---... 
 19C 0 0  85 205 215 225  00  00  360  188    0----.. 
 20F 0 0 195  00  00  00  00  00  360  216    0-..... 
 21F 0 0 195  00  00  00  00  00  381  212    0-..... 
 22F 0 0 195  00  00  00  00  00  396  202    0-..... 
 23O 0 0 186  00  00  00  00  00  423  116    0-..... 
 24O 0 0 186  00  00  00  00  00  423  164    0-..... 
20      27  Br2C15Cl3FH8N2O4     1                    
  1C 0 0  22  61 255  00  00  00  324  117    0---... 
  2C 1 0  12  31  00  00  00  00  303  141    0--.... 
  3C 0 0  21  42 245  00  00  00  261  141    0---... 
  4C 0 0  32  51 225  00  00  00  240  117    0---... 
  5C 0 0  41  62 235  00  00  00  261   93    0---... 
  6C 1 0  11  52  00  00  00  00  303   93    0--.... 
  7C 0 0  82 121 205  00  00  00  153  215    0---... 
  8C 1 0  72  91  00  00  00  00  117  201    0--.... 
  9C 1 0  81 102  00  00  00  00  117  173    0--.... 
 10C 0 0  92 111 165  00  00  00  153  159    0---... 
 11C 1 0 101 122  00  00  00  00  189  173    0--.... 
 12C 1 0  71 112  00  00  00  00  189  201    0--.... 
 13C 0 0 146 155 225  00  00  00  204  103    0---... 
 14O 0 0 136  00  00  00  00  00  204   75    0-..... 
 15N 1 0 135 165  00  00  00  00  162  103    0--.... 
 16C 1 0 105 155 175  00  00  00  141  127    0---... 
 17C 0 0 165 185 195 215  00  00   99  127    0----.. 
 18CL0 0 175  00  00  00  00  00   78  103    0-..... 
 19CL0 0 175  00  00  00  00  00   63  141    0-..... 
 20F 0 0  75  00  00  00  00  00  153  243    0-..... 
 21CL0 0 175  00  00  00  00  00   63  113    0-..... 
 22O 0 0 135  45  00  00  00  00  204  131    0--.... 
 23BR0 0  55  00  00  00  00  00  261   65    0-..... 
 24BR0 0  35  00  00  00  00  00  261  169    0-..... 
 25N 0 0  15 266 276  00  00  00  366  117    0---... 
 26O 0 0 256  00  00  00  00  00  387   93    0-..... 
 27O 0 0 256  00  00  00  00  00  387  141    0-..... 
21      28  C18F3H15N4O2S        1                    
  1C 0 0  22  61 205  00  00  00  157  119    0---... 
  2C 1 0  12  31  00  00  00  00  136  143    0--.... 
  3C 1 0  21  42  00  00  00  00   94  143    0--.... 
  4C 0 0  32  51 195  00  00  00   73  119    0---... 
  5C 1 0  41  62  00  00  00  00   94   95    0--.... 
  6C 1 0  52  11  00  00  00  00  136   95    0--.... 
  7C 1 0  82 121  00  00  00  00  344   91    0--.... 
  8C 0 0  72  91 175  00  00  00  323  115    0---... 
  9N 0 0  81 102  00  00  00  00  281  115    0--.... 
 10C 0 0  92 111 215  00  00  00  260   91    0---... 
 11N 0 0 101 122  00  00  00  00  281   67    0--.... 
 12C 0 0 112  71 245  00  00  00  323   67    0---... 
 13C 1 0 142 181  00  00  00  00  428  173    0--.... 
 14C 0 0 132 151 285  00  00  00  407  197    0---... 
 15C 1 0 141 162  00  00  00  00  365  197    0--.... 
 16C 1 0 152 171  00  00  00  00  344  173    0--.... 
 17C 0 0 161 182  85  00  00  00  365  149    0---... 
 18C 1 0 172 131  00  00  00  00  407  149    0--.... 
 19N 2 0  45  00  00  00  00  00   31  119    0-..... 
 20S 0 0  15 215 226 236  00  00  199  119    0----.. 
 21N 1 0 205 105  00  00  00  00  220   95    0--.... 
 22O 0 0 206  00  00  00  00  00  178   95    0-..... 
 23O 0 0 206  00  00  00  00  00  199  147    0-..... 
 24C 0 0 125 255 265 275  00  00  359   53    0----.. 
 25F 0 0 245  00  00  00  00  00  380   29    0-..... 
 26F 0 0 245  00  00  00  00  00  395   39    0-..... 
 27F 0 0 245  00  00  00  00  00  401   53    0-..... 
 28C 3 0 145  00  00  00  00  00  428  221    0-..... 
22      20  C15F3H16NO           1                    
  1C 2 0  21  61  00  00  00  00  322  113    0--.... 
  2C 2 0  11  31  00  00  00  00  301  137    0--.... 
  3C 2 0  21  41  00  00  00  00  259  137    0--.... 
  4N 0 0  31  51 135  00  00  00  238  113    0---... 
  5C 2 0  41  61  00  00  00  00  259   89    0--.... 
  6C 2 0  51  11  00  00  00  00  301   89    0--.... 
  7C 1 0  82 121  00  00  00  00  198  213    0--.... 
  8C 1 0  72  91  00  00  00  00  162  199    0--.... 
  9C 1 0  81 102  00  00  00  00  162  171    0--.... 
 10C 0 0  92 111 135  00  00  00  198  157    0---... 
 11C 1 0 101 122  00  00  00  00  234  171    0--.... 
 12C 1 0 112  71  00  00  00  00  234  199    0--.... 
 13C 0 0  45 105 146  00  00  00  202  127    0---... 
 14C 1 0 136 155  00  00  00  00  166  113    0--.... 
 15C 0 0 145 166 175  00  00  00  130  127    0---... 
 16O 0 0 156  00  00  00  00  00  130  155    0-..... 
 17C 0 0 155 185 195 205  00  00   94  113    0----.. 
 18F 0 0 175  00  00  00  00  00   94   85    0-..... 
 19F 0 0 175  00  00  00  00  00   58   99    0-..... 
 20F 0 0 175  00  00  00  00  00   58  127    0-..... 
23      15  C10F3H7O2            1                    
  1C 1 0  21  62  00  00  00  00  322  113    0--.... 
  2C 1 0  11  32  00  00  00  00  301  137    0--.... 
  3C 1 0  22  41  00  00  00  00  259  137    0--.... 
  4C 0 0  31  52  85  00  00  00  238  113    0---... 
  5C 1 0  42  61  00  00  00  00  259   89    0--.... 
  6C 1 0  12  51  00  00  00  00  301   89    0--.... 
  7O 0 0  86  00  00  00  00  00  198  157    0-..... 
  8C 0 0  45  76  95  00  00  00  202  127    0---... 
  9C 1 0  85 101 111  00  00  00  166  113    0---... 
 10C 1 0  91 111 125  00  00  00  130  127    0---... 
 11O 0 0 101  91  00  00  00  00  130  155    0--.... 
 12C 0 0 105 135 145 155  00  00   94  113    0----.. 
 13F 0 0 125  00  00  00  00  00   94   85    0-..... 
 14F 0 0 125  00  00  00  00  00   58   99    0-..... 
 15F 0 0 125  00  00  00  00  00   58  127    0-..... 
24      18  C10F3H6NO4           1                    
  1C 0 0  21  62 165  00  00  00  322  113    0---... 
  2C 1 0  11  32  00  00  00  00  301  137    0--.... 
  3C 1 0  22  41  00  00  00  00  259  137    0--.... 
  4C 0 0  31  52  85  00  00  00  238  113    0---... 
  5C 1 0  42  61  00  00  00  00  259   89    0--.... 
  6C 1 0  12  51  00  00  00  00  301   89    0--.... 
  7O 0 0  86  00  00  00  00  00  198  157    0-..... 
  8C 0 0  45  76  95  00  00  00  202  127    0---... 
  9C 1 0  85 101 111  00  00  00  166  113    0---... 
 10C 1 0  91 111 125  00  00  00  130  127    0---... 
 11O 0 0  91 101  00  00  00  00  130  155    0--.... 
 12C 0 0 105 135 145 155  00  00   94  113    0----.. 
 13F 0 0 125  00  00  00  00  00   94   85    0-..... 
 14F 0 0 125  00  00  00  00  00   58   99    0-..... 
 15F 0 0 125  00  00  00  00  00   58  127    0-..... 
 16N 0 0  15 176 186  00  00  00  364  113    0---... 
 17O 0 0 166  00  00  00  00  00  385   89    0-..... 
 18O 0 0 166  00  00  00  00  00  385  137    0-..... 
25      24  C13F9H7O2            1                    
  1C 1 0  21  62  00  00  00  00  322  113    0--.... 
  2C 1 0  11  32  00  00  00  00  301  137    0--.... 
  3C 1 0  22  41  00  00  00  00  259  137    0--.... 
  4C 0 0  31  52  85  00  00  00  238  113    0---... 
  5C 1 0  42  61  00  00  00  00  259   89    0--.... 
  6C 1 0  12  51  00  00  00  00  301   89    0--.... 
  7O 0 0  86  00  00  00  00  00  198  157    0-..... 
  8C 0 0  45  76  95  00  00  00  202  127    0---... 
  9C 1 0  85 101 111  00  00  00  166  113    0---... 
 10C 1 0  91 111 125  00  00  00  130  127    0---... 
 11O 0 0  91 101  00  00  00  00  130  155    0--.... 
 12C 0 0 105 135 145 245  00  00   94  113    0----.. 
 13F 0 0 125  00  00  00  00  00   94   85    0-..... 
 14C 0 0 125 155 165 235  00  00   58  127    0----.. 
 15C 0 0 145 175 185 225  00  00   58  155    0----.. 
 16F 0 0 145  00  00  00  00  00   37  103    0-..... 
 17F 0 0 155  00  00  00  00  00   16  155    0-..... 
 18C 0 0 155 195 205 215  00  00   58  183    0----.. 
 19F 0 0 185  00  00  00  00  00   37  207    0-..... 
 20F 0 0 185  00  00  00  00  00   58  211    0-..... 
 21F 0 0 185  00  00  00  00  00   79  207    0-..... 
 22F 0 0 155  00  00  00  00  00  100  155    0-..... 
 23F 0 0 145  00  00  00  00  00   94  141    0-..... 
 24F 0 0 125  00  00  00  00  00  130   99    0-..... 
26      15  C9F3H12NO2           1                    
  1O 0 0  21  61  00  00  00  00  288  136    0--.... 
  2C 2 0  11  31  00  00  00  00  267  160    0--.... 
  3C 2 0  21  41  00  00  00  00  225  160    0--.... 
  4N 0 0  31  51  75  00  00  00  204  136    0---... 
  5C 2 0  41  61  00  00  00  00  225  112    0--.... 
  6C 2 0  51  11  00  00  00  00  267  112    0--.... 
  7C 0 0  45  85  96  00  00  00  162  136    0---... 
  8C 3 0  75  00  00  00  00  00  162  164    0-..... 
  9C 1 0  76 105  00  00  00  00  141  112    0--.... 
 10C 0 0  95 116 125  00  00  00  120  136    0---... 
 11O 0 0 106  00  00  00  00  00  120  164    0-..... 
 12C 0 0 105 135 145 155  00  00   78  136    0----.. 
 13F 0 0 125  00  00  00  00  00   78  108    0-..... 
 14F 0 0 125  00  00  00  00  00   42  122    0-..... 
 15F 0 0 125  00  00  00  00  00   42  150    0-..... 
27      16  C10FH8N3OSe          1                    
  1C 0 0  22  61  85  00  00  00  149  140    0---... 
  2C 1 0  12  31  00  00  00  00  128  164    0--.... 
  3C 1 0  21  42  00  00  00  00   86  164    0--.... 
  4C 0 0  32  51  75  00  00  00   65  140    0---... 
  5C 1 0  41  62  00  00  00  00   86  116    0--.... 
  6C 1 0  52  11  00  00  00  00  128  116    0--.... 
  7F 0 0  45  00  00  00  00  00   23  140    0-..... 
  8C 1 0  15  96  00  00  00  00  185  126    0--.... 
  9N 0 0  86 105  00  00  00  00  227  126    0--.... 
 10N 0 0  95 116  00  00  00  00  248  150    0--.... 
 11C 0 0 106 121 151  00  00  00  290  150    0---... 
 12C 2 0 111 131  00  00  00  00  290  178    0--.... 
 13SE0 0 121 141  00  00  00  00  311  202    0--.... 
 14C 0 0 131 151 166  00  00  00  332  178    0---... 
 15N 1 0 141 111  00  00  00  00  332  150    0--.... 
 16O 0 0 146  00  00  00  00  00  353  202    0-..... 
28      48  C34FH28N5O7S         1                    
  1C 0 0  22  61 175  00  00  00   74  156    0---... 
  2C 1 0  12  31  00  00  00  00   38  142    0--.... 
  3C 1 0  21  42  00  00  00  00   38  114    0--.... 
  4C 1 0  32  51  00  00  00  00   74  100    0--.... 
  5C 0 0  41  62  71  00  00  00  110  114    0---... 
  6C 0 0  52  11 101  00  00  00  110  142    0---... 
  7C 1 0  51  82  00  00  00  00  141  101    0--.... 
  8C 0 0  72  91 235  00  00  00  173  116    0---... 
  9C 0 0  81 102 185  00  00  00  175  144    0---... 
 10N 0 0  92  61  00  00  00  00  144  157    0--.... 
 11C 0 0 122 161 205  00  00  00  298  201    0---... 
 12C 1 0 112 131  00  00  00  00  277  225    0--.... 
 13C 1 0 121 142  00  00  00  00  235  225    0--.... 
 14C 0 0 132 151 195  00  00  00  214  201    0---... 
 15C 1 0 141 162  00  00  00  00  235  177    0--.... 
 16C 1 0 152 111  00  00  00  00  277  177    0--.... 
 17F 0 0  15  00  00  00  00  00   74  184    0-..... 
 18C 1 0  95 196  00  00  00  00  175  172    0--.... 
 19C 1 0 186 145  00  00  00  00  175  200    0--.... 
 20N 0 0 115 216 226  00  00  00  340  201    0---... 
 21O 0 0 206  00  00  00  00  00  361  177    0-..... 
 22O 0 0 206  00  00  00  00  00  361  225    0-..... 
 23C 0 0  85 246 255  00  00  00  173   88    0---... 
 24O 0 0 236  00  00  00  00  00  137   74    0-..... 
 25N 1 0 235 265  00  00  00  00  209   74    0--.... 
 26C 1 0 255 275 335  00  00  00  245   88    0---... 
 27C 0 0 265 281 322  00  00  00  245  116    0---... 
 28C 1 0 271 292  00  00  00  00  287  116    0--.... 
 29C 1 0 282 301  00  00  00  00  323  130    0--.... 
 30C 1 0 291 312  00  00  00  00  287  144    0--.... 
 31C 1 0 302 321  00  00  00  00  245  144    0--.... 
 32C 1 0 311 272  00  00  00  00  209  130    0--.... 
 33C 0 0 265 346 445  00  00  00  281   74    0---... 
 34O 0 0 336  00  00  00  00  00  260   50    0-..... 
 35C 1 0 361 381 445  00  00  00  317   88    0---... 
 36C 1 0 351 371 391  00  00  00  353   74    0---... 
 37N 0 0 361 381 451  00  00  00  374   98    0---... 
 38C 0 0 371 351 436  00  00  00  338  112    0---... 
 39S 0 0 361 401  00  00  00  00  389   60    0--.... 
 40C 0 0 391 415 425 451  00  00  425   74    0----.. 
 41C 3 0 405  00  00  00  00  00  446   50    0-..... 
 42C 3 0 405  00  00  00  00  00  446   98    0-..... 
 43O 0 0 386  00  00  00  00  00  359  136    0-..... 
 44N 1 0 335 355  00  00  00  00  317   60    0--.... 
 45C 1 0 401 371 465  00  00  00  404   98    0---... 
 46C 0 0 455 476 485  00  00  00  404  126    0---... 
 47O 0 0 466  00  00  00  00  00  437  141    0-..... 
 48O 1 0 465  00  00  00  00  00  371  141    0-..... 
