1        4  CH3NO2               1                   
  1C 3 0  25  00  00  00  00  00  134  117    0-.....
  2N 0 0  15  36  46  00  00  00  176  117    0---...
  3O 0 0  26  00  00  00  00  00  197   93    0-.....
  4O 0 0  26  00  00  00  00  00  197  141    0-.....
2        7  CCl3NO2              1                   
  1C 0 0  25  55  65  75  00  00  134  117    0----..
  2N 0 0  15  36  46  00  00  00  176  117    0---...
  3O 0 0  26  00  00  00  00  00  197   93    0-.....
  4O 0 0  26  00  00  00  00  00  197  141    0-.....
  5CL0 0  15  00  00  00  00  00  134   89    0-.....
  6CL0 0  15  00  00  00  00  00   92  117    0-.....
  7CL0 0  15  00  00  00  00  00  134  145    0-.....
3        8  CFHN2O4              1                   
  1C 1 0  25  55  65  00  00  00  134  117    0---...
  2N 0 0  15  36  46  00  00  00  176  117    0---...
  3O 0 0  26  00  00  00  00  00  197   93    0-.....
  4O 0 0  26  00  00  00  00  00  197  141    0-.....
  5F 0 0  15  00  00  00  00  00   92  117    0-.....
  6N 0 0  15  76  86  00  00  00  134  145    0---...
  7O 0 0  66  00  00  00  00  00  167  160    0-.....
  8O 0 0  66  00  00  00  00  00  101  160    0-.....
4        8  CClHN2O4             1                   
  1C 1 0  25  55  65  00  00  00  134  117    0---...
  2N 0 0  15  36  46  00  00  00  176  117    0---...
  3O 0 0  26  00  00  00  00  00  197   93    0-.....
  4O 0 0  26  00  00  00  00  00  197  141    0-.....
  5CL0 0  15  00  00  00  00  00   92  117    0-.....
  6N 0 0  15  76  86  00  00  00  134  145    0---...
  7O 0 0  66  00  00  00  00  00  167  160    0-.....
  8O 0 0  66  00  00  00  00  00  101  160    0-.....
5        9  CCl2N2O4             1                   
  1C 0 0  25  55  65  95  00  00  134  117    0----..
  2N 0 0  15  36  46  00  00  00  176  117    0---...
  3O 0 0  26  00  00  00  00  00  197   93    0-.....
  4O 0 0  26  00  00  00  00  00  197  141    0-.....
  5CL0 0  15  00  00  00  00  00   92  117    0-.....
  6N 0 0  15  76  86  00  00  00  134  145    0---...
  7O 0 0  66  00  00  00  00  00  167  160    0-.....
  8O 0 0  66  00  00  00  00  00  101  160    0-.....
  9CL0 0  15  00  00  00  00  00  134   89    0-.....
6        9  CClFN2O4             1                   
  1C 0 0  25  55  65  95  00  00  134  117    0----..
  2N 0 0  15  36  46  00  00  00  176  117    0---...
  3O 0 0  26  00  00  00  00  00  197   93    0-.....
  4O 0 0  26  00  00  00  00  00  197  141    0-.....
  5CL0 0  15  00  00  00  00  00   92  117    0-.....
  6N 0 0  15  76  86  00  00  00  134  145    0---...
  7O 0 0  66  00  00  00  00  00  167  160    0-.....
  8O 0 0  66  00  00  00  00  00  101  160    0-.....
  9F 0 0  15  00  00  00  00  00  134   89    0-.....
7        9  BrCFN2O4             1                   
  1C 0 0  25  55  65  95  00  00  134  117    0----..
  2N 0 0  15  36  46  00  00  00  176  117    0---...
  3O 0 0  26  00  00  00  00  00  197   93    0-.....
  4O 0 0  26  00  00  00  00  00  197  141    0-.....
  5BR0 0  15  00  00  00  00  00   92  117    0-.....
  6N 0 0  15  76  86  00  00  00  134  145    0---...
  7O 0 0  66  00  00  00  00  00  167  160    0-.....
  8O 0 0  66  00  00  00  00  00  101  160    0-.....
  9F 0 0  15  00  00  00  00  00  134   89    0-.....
8        9  CFIN2O4              1                   
  1C 0 0  25  55  65  95  00  00  134  117    0----..
  2N 0 0  15  36  46  00  00  00  176  117    0---...
  3O 0 0  26  00  00  00  00  00  197   93    0-.....
  4O 0 0  26  00  00  00  00  00  197  141    0-.....
  5I 0 0  15  00  00  00  00  00   92  117    0-.....
  6N 0 0  15  76  86  00  00  00  134  145    0---...
  7O 0 0  66  00  00  00  00  00  167  160    0-.....
  8O 0 0  66  00  00  00  00  00  101  160    0-.....
  9F 0 0  15  00  00  00  00  00  134   89    0-.....
9        9  CF2N2O4              1                   
  1C 0 0  25  55  65  95  00  00  134  117    0----..
  2N 0 0  15  36  46  00  00  00  176  117    0---...
  3O 0 0  26  00  00  00  00  00  197   93    0-.....
  4O 0 0  26  00  00  00  00  00  197  141    0-.....
  5F 0 0  15  00  00  00  00  00   92  117    0-.....
  6N 0 0  15  76  86  00  00  00  134  145    0---...
  7O 0 0  66  00  00  00  00  00  167  160    0-.....
  8O 0 0  66  00  00  00  00  00  101  160    0-.....
  9F 0 0  15  00  00  00  00  00  134   89    0-.....
10      10  CHN3O6               1                   
  1C 1 0  25  55  65  00  00  00  134  117    0---...
  2N 0 0  15  36  46  00  00  00  176  117    0---...
  3O 0 0  26  00  00  00  00  00  197   93    0-.....
  4O 0 0  26  00  00  00  00  00  197  141    0-.....
  5N 0 0  15  96 106  00  00  00   92  117    0---...
  6N 0 0  15  76  86  00  00  00  134  145    0---...
  7O 0 0  66  00  00  00  00  00  167  160    0-.....
  8O 0 0  66  00  00  00  00  00  101  160    0-.....
  9O 0 0  56  00  00  00  00  00   71  141    0-.....
 10O 0 0  56  00  00  00  00  00   71   93    0-.....
11      11  CF3N3O4              1                   
  1C 0 0  25  55  65  95  00  00  134  117    0----..
  2N 0 0  15  36  46  00  00  00  176  117    0---...
  3O 0 0  26  00  00  00  00  00  197   93    0-.....
  4O 0 0  26  00  00  00  00  00  197  141    0-.....
  5N 0 0  15 105 115  00  00  00   92  117    0---...
  6N 0 0  15  76  86  00  00  00  134  145    0---...
  7O 0 0  66  00  00  00  00  00  167  160    0-.....
  8O 0 0  66  00  00  00  00  00  101  160    0-.....
  9F 0 0  15  00  00  00  00  00  134   89    0-.....
 10F 0 0  55  00  00  00  00  00   71   93    0-.....
 11F 0 0  55  00  00  00  00  00   56  131    0-.....
12      11  CFN3O6               1                   
  1C 0 0  25  55  65 115  00  00  134  117    0----..
  2N 0 0  15  36  46  00  00  00  176  117    0---...
  3O 0 0  26  00  00  00  00  00  197   93    0-.....
  4O 0 0  26  00  00  00  00  00  197  141    0-.....
  5N 0 0  15  96 106  00  00  00   92  117    0---...
  6N 0 0  15  76  86  00  00  00  134  145    0---...
  7O 0 0  66  00  00  00  00  00  167  160    0-.....
  8O 0 0  66  00  00  00  00  00  101  160    0-.....
  9O 0 0  56  00  00  00  00  00   71  141    0-.....
 10O 0 0  56  00  00  00  00  00   71   93    0-.....
 11F 0 0  15  00  00  00  00  00  134   89    0-.....
13      11  CClN3O6              1                   
  1C 0 0  25  55  65 115  00  00  134  117    0----..
  2N 0 0  15  36  46  00  00  00  176  117    0---...
  3O 0 0  26  00  00  00  00  00  197   93    0-.....
  4O 0 0  26  00  00  00  00  00  197  141    0-.....
  5N 0 0  15  96 106  00  00  00   92  117    0---...
  6N 0 0  15  76  86  00  00  00  134  145    0---...
  7O 0 0  66  00  00  00  00  00  167  160    0-.....
  8O 0 0  66  00  00  00  00  00  101  160    0-.....
  9O 0 0  56  00  00  00  00  00   71  141    0-.....
 10O 0 0  56  00  00  00  00  00   71   93    0-.....
 11CL0 0  15  00  00  00  00  00  134   89    0-.....
14      11  BrCN3O6              1                   
  1C 0 0  25  55  65 115  00  00  134  117    0----..
  2N 0 0  15  36  46  00  00  00  176  117    0---...
  3O 0 0  26  00  00  00  00  00  197   93    0-.....
  4O 0 0  26  00  00  00  00  00  197  141    0-.....
  5N 0 0  15  96 106  00  00  00   92  117    0---...
  6N 0 0  15  76  86  00  00  00  134  145    0---...
  7O 0 0  66  00  00  00  00  00  167  160    0-.....
  8O 0 0  66  00  00  00  00  00  101  160    0-.....
  9O 0 0  56  00  00  00  00  00   71  141    0-.....
 10O 0 0  56  00  00  00  00  00   71   93    0-.....
 11BR0 0  15  00  00  00  00  00  134   89    0-.....
15      11  CIN3O6               1                   
  1C 0 0  25  55  65 115  00  00  134  117    0----..
  2N 0 0  15  36  46  00  00  00  176  117    0---...
  3O 0 0  26  00  00  00  00  00  197   93    0-.....
  4O 0 0  26  00  00  00  00  00  197  141    0-.....
  5N 0 0  15  96 106  00  00  00   92  117    0---...
  6N 0 0  15  76  86  00  00  00  134  145    0---...
  7O 0 0  66  00  00  00  00  00  167  160    0-.....
  8O 0 0  66  00  00  00  00  00  101  160    0-.....
  9O 0 0  56  00  00  00  00  00   71  141    0-.....
 10O 0 0  56  00  00  00  00  00   71   93    0-.....
 11I 0 0  15  00  00  00  00  00  134   89    0-.....
16      13  CN4O8                1                   
  1C 0 0  25  55  65 115  00  00  134  117    0----..
  2N 0 0  15  36  46  00  00  00  176  117    0---...
  3O 0 0  26  00  00  00  00  00  197   93    0-.....
  4O 0 0  26  00  00  00  00  00  197  141    0-.....
  5N 0 0  15  96 106  00  00  00   92  117    0---...
  6N 0 0  15  76  86  00  00  00  134  145    0---...
  7O 0 0  66  00  00  00  00  00  167  160    0-.....
  8O 0 0  66  00  00  00  00  00  101  160    0-.....
  9O 0 0  56  00  00  00  00  00   71  141    0-.....
 10O 0 0  56  00  00  00  00  00   71   93    0-.....
 11N 0 0  15 126 136  00  00  00  134   89    0---...
 12O 0 0 116  00  00  00  00  00  101   74    0-.....
 13O 0 0 116  00  00  00  00  00  167   74    0-.....
17      13  CF2N4O6              1                   
  1C 0 0  25  55  65 115  00  00  134  117    0----..
  2N 0 0  15  36  46  00  00  00  176  117    0---...
  3O 0 0  26  00  00  00  00  00  197   93    0-.....
  4O 0 0  26  00  00  00  00  00  197  141    0-.....
  5N 0 0  15  96 106  00  00  00   92  117    0---...
  6N 0 0  15  76  86  00  00  00  134  145    0---...
  7O 0 0  66  00  00  00  00  00  167  160    0-.....
  8O 0 0  66  00  00  00  00  00  101  160    0-.....
  9O 0 0  56  00  00  00  00  00   71  141    0-.....
 10O 0 0  56  00  00  00  00  00   71   93    0-.....
 11N 0 0  15 125 135  00  00  00  134   89    0---...
 12F 0 0 115  00  00  00  00  00  155   65    0-.....
 13F 0 0 115  00  00  00  00  00  113   65    0-.....
18       7  C2Cl2H3NO2           1                   
  1C 0 0  25  55  65  75  00  00  134  117    0----..
  2N 0 0  15  36  46  00  00  00  176  117    0---...
  3O 0 0  26  00  00  00  00  00  197   93    0-.....
  4O 0 0  26  00  00  00  00  00  197  141    0-.....
  5CL0 0  15  00  00  00  00  00  134   89    0-.....
  6C 3 0  15  00  00  00  00  00   92  117    0-.....
  7CL0 0  15  00  00  00  00  00  134  145    0-.....
19       9  C2FH3N2O4            1                   
  1C 0 0  25  55  65  75  00  00  134  117    0----..
  2N 0 0  15  36  46  00  00  00  176  117    0---...
  3O 0 0  26  00  00  00  00  00  197   93    0-.....
  4O 0 0  26  00  00  00  00  00  197  141    0-.....
  5C 3 0  15  00  00  00  00  00   92  117    0-.....
  6F 0 0  15  00  00  00  00  00  134  145    0-.....
  7N 0 0  15  86  96  00  00  00  113   93    0---...
  8O 0 0  76  00  00  00  00  00   74   93    0-.....
  9O 0 0  76  00  00  00  00  00  130   67    0-.....
20       9  C2ClH3N2O4           1                   
  1C 0 0  25  55  65  75  00  00  134  117    0----..
  2N 0 0  15  36  46  00  00  00  176  117    0---...
  3O 0 0  26  00  00  00  00  00  197   93    0-.....
  4O 0 0  26  00  00  00  00  00  197  141    0-.....
  5C 3 0  15  00  00  00  00  00   92  117    0-.....
  6CL0 0  15  00  00  00  00  00  134  145    0-.....
  7N 0 0  15  86  96  00  00  00  113   93    0---...
  8O 0 0  76  00  00  00  00  00   74   93    0-.....
  9O 0 0  76  00  00  00  00  00  130   67    0-.....
21       9  BrC2H3N2O4           1                   
  1C 0 0  25  55  65  75  00  00  134  117    0----..
  2N 0 0  15  36  46  00  00  00  176  117    0---...
  3O 0 0  26  00  00  00  00  00  197   93    0-.....
  4O 0 0  26  00  00  00  00  00  197  141    0-.....
  5C 3 0  15  00  00  00  00  00   92  117    0-.....
  6BR0 0  15  00  00  00  00  00  134  145    0-.....
  7N 0 0  15  86  96  00  00  00  113   93    0---...
  8O 0 0  76  00  00  00  00  00   74   93    0-.....
  9O 0 0  76  00  00  00  00  00  130   67    0-.....
22       8  C2H4N2O4             1                   
  1C 1 0  25  55  65  00  00  00  134  117    0---...
  2N 0 0  15  36  46  00  00  00  176  117    0---...
  3O 0 0  26  00  00  00  00  00  197   93    0-.....
  4O 0 0  26  00  00  00  00  00  197  141    0-.....
  5C 3 0  15  00  00  00  00  00   92  117    0-.....
  6N 0 0  15  76  86  00  00  00  113   93    0---...
  7O 0 0  66  00  00  00  00  00   74   93    0-.....
  8O 0 0  66  00  00  00  00  00  130   67    0-.....
23      11  C2F2H3N3O4           1                   
  1C 0 0  25  55  65  95  00  00  134  117    0----..
  2N 0 0  15  36  46  00  00  00  176  117    0---...
  3O 0 0  26  00  00  00  00  00  197   93    0-.....
  4O 0 0  26  00  00  00  00  00  197  141    0-.....
  5C 3 0  15  00  00  00  00  00   92  117    0-.....
  6N 0 0  15  76  86  00  00  00  113   93    0---...
  7O 0 0  66  00  00  00  00  00   74   93    0-.....
  8O 0 0  66  00  00  00  00  00  130   67    0-.....
  9N 0 0  15 105 115  00  00  00  113  141    0---...
 10F 0 0  95  00  00  00  00  00   77  155    0-.....
 11F 0 0  95  00  00  00  00  00  113  169    0-.....
24      11  C2H3N3O6             1                   
  1C 0 0  25  55  65 115  00  00  134  117    0----..
  2N 0 0  15  36  46  00  00  00  176  117    0---...
  3O 0 0  26  00  00  00  00  00  197   93    0-.....
  4O 0 0  26  00  00  00  00  00  197  141    0-.....
  5N 0 0  15  96 106  00  00  00   92  117    0---...
  6N 0 0  15  76  86  00  00  00  134  145    0---...
  7O 0 0  66  00  00  00  00  00  167  160    0-.....
  8O 0 0  66  00  00  00  00  00  101  160    0-.....
  9O 0 0  56  00  00  00  00  00   71  141    0-.....
 10O 0 0  56  00  00  00  00  00   71   93    0-.....
 11C 3 0  15  00  00  00  00  00  134   89    0-.....
25      12  C2H3N3O6S            1                   
  1C 0 0  25  55  65 115  00  00  134  117    0----..
  2N 0 0  15  36  46  00  00  00  176  117    0---...
  3O 0 0  26  00  00  00  00  00  197   93    0-.....
  4O 0 0  26  00  00  00  00  00  197  141    0-.....
  5N 0 0  15  96 106  00  00  00   92  117    0---...
  6N 0 0  15  76  86  00  00  00  134  145    0---...
  7O 0 0  66  00  00  00  00  00  167  160    0-.....
  8O 0 0  66  00  00  00  00  00  101  160    0-.....
  9O 0 0  56  00  00  00  00  00   71  141    0-.....
 10O 0 0  56  00  00  00  00  00   71   93    0-.....
 11S 0 0  15 125  00  00  00  00  134   89    0--....
 12C 3 0 115  00  00  00  00  00  113   65    0-.....
26      16  C2F2N4O8             1                   
  1F 0 0  25  00  00  00  00  00   96  122    0-.....
  2C 0 0  15  35  45  55  00  00  138  122    0----..
  3N 0 0  25  96 106  00  00  00  138   94    0---...
  4N 0 0  25 136 146  00  00  00  117  146    0---...
  5C 0 0  25  65  75  85  00  00  180  122    0----..
  6N 0 0  55 116 126  00  00  00  201   98    0---...
  7F 0 0  55  00  00  00  00  00  222  122    0-.....
  8N 0 0  55 156 166  00  00  00  180  150    0---...
  9O 0 0  36  00  00  00  00  00  105   79    0-.....
 10O 0 0  36  00  00  00  00  00  171   79    0-.....
 11O 0 0  66  00  00  00  00  00  184   72    0-.....
 12O 0 0  66  00  00  00  00  00  240   98    0-.....
 13O 0 0  46  00  00  00  00  00  134  172    0-.....
 14O 0 0  46  00  00  00  00  00   78  146    0-.....
 15O 0 0  86  00  00  00  00  00  213  165    0-.....
 16O 0 0  86  00  00  00  00  00  147  165    0-.....
27      18  C2FN5O10             1                   
  1F 0 0  25  00  00  00  00  00   96  122    0-.....
  2C 0 0  15  35  45  55  00  00  138  122    0----..
  3N 0 0  25  96 106  00  00  00  138   94    0---...
  4N 0 0  25 136 146  00  00  00  117  146    0---...
  5C 0 0  25  65  75  85  00  00  180  122    0----..
  6N 0 0  55 116 126  00  00  00  201   98    0---...
  7N 0 0  55 176 186  00  00  00  222  122    0---...
  8N 0 0  55 156 166  00  00  00  180  150    0---...
  9O 0 0  36  00  00  00  00  00  105   79    0-.....
 10O 0 0  36  00  00  00  00  00  171   79    0-.....
 11O 0 0  66  00  00  00  00  00  184   72    0-.....
 12O 0 0  66  00  00  00  00  00  240   98    0-.....
 13O 0 0  46  00  00  00  00  00  134  172    0-.....
 14O 0 0  46  00  00  00  00  00   78  146    0-.....
 15O 0 0  86  00  00  00  00  00  213  165    0-.....
 16O 0 0  86  00  00  00  00  00  147  165    0-.....
 17O 0 0  76  00  00  00  00  00  264  122    0-.....
 18O 0 0  76  00  00  00  00  00  243  146    0-.....
28      20  C2N6O12              1                   
  1N 0 0  25 196 206  00  00  00   96  122    0---...
  2C 0 0  15  35  45  55  00  00  138  122    0----..
  3N 0 0  25  96 106  00  00  00  138   94    0---...
  4N 0 0  25 136 146  00  00  00  117  146    0---...
  5C 0 0  25  65  75  85  00  00  180  122    0----..
  6N 0 0  55 116 126  00  00  00  201   98    0---...
  7N 0 0  55 176 186  00  00  00  222  122    0---...
  8N 0 0  55 156 166  00  00  00  180  150    0---...
  9O 0 0  36  00  00  00  00  00  105   79    0-.....
 10O 0 0  36  00  00  00  00  00  171   79    0-.....
 11O 0 0  66  00  00  00  00  00  184   72    0-.....
 12O 0 0  66  00  00  00  00  00  240   98    0-.....
 13O 0 0  46  00  00  00  00  00  134  172    0-.....
 14O 0 0  46  00  00  00  00  00   78  146    0-.....
 15O 0 0  86  00  00  00  00  00  213  165    0-.....
 16O 0 0  86  00  00  00  00  00  147  165    0-.....
 17O 0 0  76  00  00  00  00  00  264  122    0-.....
 18O 0 0  76  00  00  00  00  00  243  146    0-.....
 19O 0 0  16  00  00  00  00  00   75   98    0-.....
 20O 0 0  16  00  00  00  00  00   54  122    0-.....
29       8  C3Cl2H5NO2           1                   
  1C 3 0  25  00  00  00  00  00  109  129    0-.....
  2C 2 0  15  35  00  00  00  00  145  115    0--....
  3C 0 0  25  45  55  65  00  00  181  129    0----..
  4CL0 0  35  00  00  00  00  00  181  101    0-.....
  5CL0 0  35  00  00  00  00  00  181  157    0-.....
  6N 0 0  35  76  86  00  00  00  223  129    0---...
  7O 0 0  66  00  00  00  00  00  244  105    0-.....
  8O 0 0  66  00  00  00  00  00  244  153    0-.....
30       6  C3H7NO2              1                   
  1C 3 0  25  00  00  00  00  00  109  129    0-.....
  2C 2 0  15  35  00  00  00  00  145  115    0--....
  3C 2 0  25  45  00  00  00  00  181  129    0--....
  4N 0 0  35  56  66  00  00  00  223  129    0---...
  5O 0 0  46  00  00  00  00  00  244  105    0-.....
  6O 0 0  46  00  00  00  00  00  244  153    0-.....
31       9  C3H6N2O4             1                   
  1C 3 0  25  00  00  00  00  00  114  133    0-.....
  2C 0 0  15  35  45  55  00  00  150  119    0----..
  3C 3 0  25  00  00  00  00  00  186  133    0-.....
  4N 0 0  25  66  76  00  00  00  150   91    0---...
  5N 0 0  25  86  96  00  00  00  150  147    0---...
  6O 0 0  46  00  00  00  00  00  117   76    0-.....
  7O 0 0  46  00  00  00  00  00  183   76    0-.....
  8O 0 0  56  00  00  00  00  00  183  162    0-.....
  9O 0 0  56  00  00  00  00  00  117  162    0-.....
32       9  C3H6N2O4             1                   
  1C 3 0  25  00  00  00  00  00  114  133    0-.....
  2C 0 0  15  35  45  55  00  00  150  119    0----..
  3N 0 0  25  86  96  00  00  00  186  133    0---...
  4N 0 0  25  66  76  00  00  00  150   91    0---...
  5C 3 0  25  00  00  00  00  00  150  147    0-.....
  6O 0 0  46  00  00  00  00  00  117   76    0-.....
  7O 0 0  46  00  00  00  00  00  183   76    0-.....
  8O 0 0  36  00  00  00  00  00  220  119    0-.....
  9O 0 0  36  00  00  00  00  00  189  161    0-.....
33      10  C3H6N2O4S            1                   
  1S 0 0  25 105  00  00  00  00  114  133    0--....
  2C 0 0  15  35  45  55  00  00  150  119    0----..
  3N 0 0  25  86  96  00  00  00  186  133    0---...
  4N 0 0  25  66  76  00  00  00  150   91    0---...
  5C 3 0  25  00  00  00  00  00  150  147    0-.....
  6O 0 0  46  00  00  00  00  00  117   76    0-.....
  7O 0 0  46  00  00  00  00  00  183   76    0-.....
  8O 0 0  36  00  00  00  00  00  220  119    0-.....
  9O 0 0  36  00  00  00  00  00  189  161    0-.....
 10C 3 0  15  00  00  00  00  00   72  133    0-.....
34      12  C3H6N2O6S            1                   
  1S 0 0  25 105 116 126  00  00  114  133    0----..
  2C 0 0  15  35  45  55  00  00  150  119    0----..
  3N 0 0  25  86  96  00  00  00  186  133    0---...
  4N 0 0  25  66  76  00  00  00  150   91    0---...
  5C 3 0  25  00  00  00  00  00  150  147    0-.....
  6O 0 0  46  00  00  00  00  00  117   76    0-.....
  7O 0 0  46  00  00  00  00  00  183   76    0-.....
  8O 0 0  36  00  00  00  00  00  220  119    0-.....
  9O 0 0  36  00  00  00  00  00  189  161    0-.....
 10C 3 0  15  00  00  00  00  00   72  133    0-.....
 11O 0 0  16  00  00  00  00  00  114  161    0-.....
 12O 0 0  16  00  00  00  00  00   93  109    0-.....
35      12  C3H5N3O6             1                   
  1C 3 0  25  00  00  00  00  00  103  123    0-.....
  2C 2 0  15  35  00  00  00  00  139  109    0--....
  3C 0 0  25  45  55  65  00  00  181  109    0----..
  4N 0 0  35  76  86  00  00  00  181   81    0---...
  5N 0 0  35  96 106  00  00  00  223  109    0---...
  6N 0 0  35 116 126  00  00  00  181  137    0---...
  7O 0 0  46  00  00  00  00  00  148   66    0-.....
  8O 0 0  46  00  00  00  00  00  214   66    0-.....
  9O 0 0  56  00  00  00  00  00  244   85    0-.....
 10O 0 0  56  00  00  00  00  00  244  133    0-.....
 11O 0 0  66  00  00  00  00  00  214  152    0-.....
 12O 0 0  66  00  00  00  00  00  148  152    0-.....
36      13  BrC3H4N3O6           1                   
  1C 2 0  25 135  00  00  00  00  103  123    0--....
  2C 2 0  15  35  00  00  00  00  139  109    0--....
  3C 0 0  25  45  55  65  00  00  181  109    0----..
  4N 0 0  35  76  86  00  00  00  181   81    0---...
  5N 0 0  35  96 106  00  00  00  223  109    0---...
  6N 0 0  35 116 126  00  00  00  181  137    0---...
  7O 0 0  46  00  00  00  00  00  148   66    0-.....
  8O 0 0  46  00  00  00  00  00  214   66    0-.....
  9O 0 0  56  00  00  00  00  00  244   85    0-.....
 10O 0 0  56  00  00  00  00  00  244  133    0-.....
 11O 0 0  66  00  00  00  00  00  214  152    0-.....
 12O 0 0  66  00  00  00  00  00  148  152    0-.....
 13BR0 0  15  00  00  00  00  00   67  109    0-.....
37      15  C3H4N4O8             1                   
  1C 2 0  25 135  00  00  00  00  103  123    0--....
  2C 2 0  15  35  00  00  00  00  139  109    0--....
  3C 0 0  25  45  55  65  00  00  181  109    0----..
  4N 0 0  35  76  86  00  00  00  181   81    0---...
  5N 0 0  35  96 106  00  00  00  223  109    0---...
  6N 0 0  35 116 126  00  00  00  181  137    0---...
  7O 0 0  46  00  00  00  00  00  148   66    0-.....
  8O 0 0  46  00  00  00  00  00  214   66    0-.....
  9O 0 0  56  00  00  00  00  00  244   85    0-.....
 10O 0 0  56  00  00  00  00  00  244  133    0-.....
 11O 0 0  66  00  00  00  00  00  214  152    0-.....
 12O 0 0  66  00  00  00  00  00  148  152    0-.....
 13N 0 0  15 146 156  00  00  00   67  109    0---...
 14O 0 0 136  00  00  00  00  00   33  123    0-.....
 15O 0 0 136  00  00  00  00  00   64   81    0-.....
38      10  C4H8N2O4             1                   
  1C 2 0  25 105  00  00  00  00  103  123    0--....
  2C 2 0  15  35  00  00  00  00  139  109    0--....
  3C 1 0  25  45  55  00  00  00  181  109    0---...
  4N 0 0  35  66  76  00  00  00  181   81    0---...
  5N 0 0  35  86  96  00  00  00  223  109    0---...
  6O 0 0  46  00  00  00  00  00  148   66    0-.....
  7O 0 0  46  00  00  00  00  00  214   66    0-.....
  8O 0 0  56  00  00  00  00  00  244   85    0-.....
  9O 0 0  56  00  00  00  00  00  244  133    0-.....
 10C 3 0  15  00  00  00  00  00   67  109    0-.....
39      13  C4H5N3O6             1                   
  1C 2 0  21 101  00  00  00  00  153  130    0--....
  2C 1 0  11  35 101  00  00  00  173  156    0---...
  3C 0 0  25  45  55 115  00  00  172  186    0----..
  4N 0 0  35  66  76  00  00  00  210  186    0---...
  5N 0 0  35  86  96  00  00  00  172  216    0---...
  6O 0 0  46  00  00  00  00  00  232  162    0-.....
  7O 0 0  46  00  00  00  00  00  231  210    0-.....
  8O 0 0  56  00  00  00  00  00  205  232    0-.....
  9O 0 0  56  00  00  00  00  00  139  232    0-.....
 10C 2 0  11  21  00  00  00  00  213  127    0--....
 11N 0 0  35 126 136  00  00  00  134  186    0---...
 12O 0 0 116  00  00  00  00  00  114  210    0-.....
 13O 0 0 116  00  00  00  00  00  114  162    0-.....
40      13  C4H7N3O6             1                   
  1C 2 0  25 105  00  00  00  00  103  123    0--....
  2C 2 0  15  35  00  00  00  00  139  109    0--....
  3C 0 0  25  45  55 115  00  00  181  109    0----..
  4N 0 0  35  66  76  00  00  00  181   81    0---...
  5N 0 0  35  86  96  00  00  00  223  109    0---...
  6O 0 0  46  00  00  00  00  00  148   66    0-.....
  7O 0 0  46  00  00  00  00  00  214   66    0-.....
  8O 0 0  56  00  00  00  00  00  244   85    0-.....
  9O 0 0  56  00  00  00  00  00  244  133    0-.....
 10C 3 0  15  00  00  00  00  00   67  109    0-.....
 11N 0 0  35 126 136  00  00  00  181  137    0---...
 12O 0 0 116  00  00  00  00  00  214  152    0-.....
 13O 0 0 116  00  00  00  00  00  148  152    0-.....
41      14  C4H4N4O6             1                   
  1C 2 0  25 105  00  00  00  00  103  123    0--....
  2C 2 0  15  35  00  00  00  00  139  109    0--....
  3C 0 0  25  45  55 115  00  00  181  109    0----..
  4N 0 0  35  66  76  00  00  00  181   81    0---...
  5N 0 0  35  86  96  00  00  00  223  109    0---...
  6O 0 0  46  00  00  00  00  00  148   66    0-.....
  7O 0 0  46  00  00  00  00  00  214   66    0-.....
  8O 0 0  56  00  00  00  00  00  244   85    0-.....
  9O 0 0  56  00  00  00  00  00  244  133    0-.....
 10C 0 0  15 147  00  00  00  00   67  109    0--....
 11N 0 0  35 126 136  00  00  00  181  137    0---...
 12O 0 0 116  00  00  00  00  00  214  152    0-.....
 13O 0 0 116  00  00  00  00  00  148  152    0-.....
 14N 0 0 107  00  00  00  00  00   46   85    0-.....
42      15  C5H7N3O7             1                   
  1C 2 0  25 105  00  00  00  00  103  123    0--....
  2C 2 0  15  35  00  00  00  00  139  109    0--....
  3C 0 0  25  45  55 115  00  00  181  109    0----..
  4N 0 0  35  66  76  00  00  00  181   81    0---...
  5N 0 0  35  86  96  00  00  00  223  109    0---...
  6O 0 0  46  00  00  00  00  00  148   66    0-.....
  7O 0 0  46  00  00  00  00  00  214   66    0-.....
  8O 0 0  56  00  00  00  00  00  244   85    0-.....
  9O 0 0  56  00  00  00  00  00  244  133    0-.....
 10C 0 0  15 146 155  00  00  00   67  109    0---...
 11N 0 0  35 126 136  00  00  00  181  137    0---...
 12O 0 0 116  00  00  00  00  00  214  152    0-.....
 13O 0 0 116  00  00  00  00  00  148  152    0-.....
 14O 0 0 106  00  00  00  00  00   88   85    0-.....
 15C 3 0 105  00  00  00  00  00   46  133    0-.....
43      16  C5H7N3O8             1                   
  1C 2 0  25 105  00  00  00  00  103  123    0--....
  2C 2 0  15  35  00  00  00  00  139  109    0--....
  3C 0 0  25  45  55 115  00  00  181  109    0----..
  4N 0 0  35  66  76  00  00  00  181   81    0---...
  5N 0 0  35  86  96  00  00  00  223  109    0---...
  6O 0 0  46  00  00  00  00  00  148   66    0-.....
  7O 0 0  46  00  00  00  00  00  214   66    0-.....
  8O 0 0  56  00  00  00  00  00  244   85    0-.....
  9O 0 0  56  00  00  00  00  00  244  133    0-.....
 10C 0 0  15 146 155  00  00  00   67  109    0---...
 11N 0 0  35 126 136  00  00  00  181  137    0---...
 12O 0 0 116  00  00  00  00  00  214  152    0-.....
 13O 0 0 116  00  00  00  00  00  148  152    0-.....
 14O 0 0 106  00  00  00  00  00   88   85    0-.....
 15O 0 0 105 165  00  00  00  00   46  133    0--....
 16C 3 0 155  00  00  00  00  00   46  161    0-.....
44      18  C5F5H7N4O4           1                   
  1C 2 0  25  75  00  00  00  00  103  123    0--....
  2C 2 0  15  35  00  00  00  00  139  109    0--....
  3C 0 0  25  45  85 135  00  00  181  109    0----..
  4N 0 0  35  56  66  00  00  00  223  109    0---...
  5O 0 0  46  00  00  00  00  00  244   85    0-.....
  6O 0 0  46  00  00  00  00  00  244  133    0-.....
  7C 0 0  15 115 125 145  00  00   67  109    0----..
  8N 0 0  35  96 106  00  00  00  181  137    0---...
  9O 0 0  86  00  00  00  00  00  214  152    0-.....
 10O 0 0  86  00  00  00  00  00  148  152    0-.....
 11N 0 0  75 155 165  00  00  00   88   85    0---...
 12C 3 0  75  00  00  00  00  00   46  133    0-.....
 13F 0 0  35  00  00  00  00  00  181   81    0-.....
 14N 0 0  75 175 185  00  00  00   46   85    0---...
 15F 0 0 115  00  00  00  00  00  109   61    0-.....
 16F 0 0 115  00  00  00  00  00  124   71    0-.....
 17F 0 0 145  00  00  00  00  00   35   59    0-.....
 18F 0 0 145  00  00  00  00  00   67   61    0-.....
45      20  C5F4H7N5O6           1                   
  1C 2 0  25  75  00  00  00  00  103  123    0--....
  2C 2 0  15  35  00  00  00  00  139  109    0--....
  3C 0 0  25  45  85 135  00  00  181  109    0----..
  4N 0 0  35  56  66  00  00  00  223  109    0---...
  5O 0 0  46  00  00  00  00  00  244   85    0-.....
  6O 0 0  46  00  00  00  00  00  244  133    0-.....
  7C 0 0  15 115 125 145  00  00   67  109    0----..
  8N 0 0  35  96 106  00  00  00  181  137    0---...
  9O 0 0  86  00  00  00  00  00  214  152    0-.....
 10O 0 0  86  00  00  00  00  00  148  152    0-.....
 11N 0 0  75 155 165  00  00  00   88   85    0---...
 12C 3 0  75  00  00  00  00  00   46  133    0-.....
 13N 0 0  35 196 206  00  00  00  181   81    0---...
 14N 0 0  75 175 185  00  00  00   46   85    0---...
 15F 0 0 115  00  00  00  00  00  109   61    0-.....
 16F 0 0 115  00  00  00  00  00  124   71    0-.....
 17F 0 0 145  00  00  00  00  00   35   59    0-.....
 18F 0 0 145  00  00  00  00  00   67   61    0-.....
 19O 0 0 136  00  00  00  00  00  148   66    0-.....
 20O 0 0 136  00  00  00  00  00  214   66    0-.....
46      17  C7H11N3O7            1                   
  1C 2 0  25 105  00  00  00  00  103  123    0--....
  2C 0 0  15  35 145 155  00  00  139  109    0----..
  3C 0 0  25  45  55 115  00  00  181  109    0----..
  4N 0 0  35  66  76  00  00  00  181   81    0---...
  5N 0 0  35  86  96  00  00  00  223  109    0---...
  6O 0 0  46  00  00  00  00  00  148   66    0-.....
  7O 0 0  46  00  00  00  00  00  214   66    0-.....
  8O 0 0  56  00  00  00  00  00  244   85    0-.....
  9O 0 0  56  00  00  00  00  00  244  133    0-.....
 10C 0 0  15 165 176  00  00  00   67  109    0---...
 11N 0 0  35 126 136  00  00  00  181  137    0---...
 12O 0 0 116  00  00  00  00  00  214  152    0-.....
 13O 0 0 116  00  00  00  00  00  148  152    0-.....
 14C 3 0  25  00  00  00  00  00  118   85    0-.....
 15C 3 0  25  00  00  00  00  00  118  133    0-.....
 16C 3 0 105  00  00  00  00  00   31  123    0-.....
 17O 0 0 106  00  00  00  00  00   46   85    0-.....
47      17  C7H5N3O6S            1                   
  1C 1 0  22  61  00  00  00  00   88  132    0--....
  2C 1 0  12  31  00  00  00  00  109  108    0--....
  3C 1 0  21  42  00  00  00  00  151  108    0--....
  4C 0 0  32  51  75  00  00  00  172  132    0---...
  5C 1 0  41  62  00  00  00  00  151  156    0--....
  6C 1 0  52  11  00  00  00  00  109  156    0--....
  7S 0 0  45  85  00  00  00  00  208  118    0--....
  8C 0 0  75  95 105 115  00  00  244  132    0----..
  9N 0 0  85 166 176  00  00  00  280  118    0---...
 10N 0 0  85 126 136  00  00  00  223  156    0---...
 11N 0 0  85 146 156  00  00  00  265  156    0---...
 12O 0 0 106  00  00  00  00  00  216  182    0-.....
 13O 0 0 106  00  00  00  00  00  184  156    0-.....
 14O 0 0 116  00  00  00  00  00  304  156    0-.....
 15O 0 0 116  00  00  00  00  00  248  182    0-.....
 16O 0 0  96  00  00  00  00  00  283   90    0-.....
 17O 0 0  96  00  00  00  00  00  314  132    0-.....
48      23  C7H3N5O10S           1                   
  1C 0 0  22  61 195  00  00  00   88  132    0---...
  2C 1 0  12  31  00  00  00  00  109  108    0--....
  3C 0 0  21  42 185  00  00  00  151  108    0---...
  4C 0 0  32  51  75  00  00  00  172  132    0---...
  5C 1 0  41  62  00  00  00  00  151  156    0--....
  6C 1 0  11  52  00  00  00  00  109  156    0--....
  7S 0 0  45  85  00  00  00  00  208  118    0--....
  8C 0 0  75  95 105 115  00  00  244  132    0----..
  9N 0 0  85 166 176  00  00  00  280  118    0---...
 10N 0 0  85 126 136  00  00  00  223  156    0---...
 11N 0 0  85 146 156  00  00  00  265  156    0---...
 12O 0 0 106  00  00  00  00  00  216  182    0-.....
 13O 0 0 106  00  00  00  00  00  184  156    0-.....
 14O 0 0 116  00  00  00  00  00  304  156    0-.....
 15O 0 0 116  00  00  00  00  00  248  182    0-.....
 16O 0 0  96  00  00  00  00  00  283   90    0-.....
 17O 0 0  96  00  00  00  00  00  314  132    0-.....
 18N 0 0  35 206 216  00  00  00  151   80    0---...
 19N 0 0  15 226 236  00  00  00   52  146    0---...
 20O 0 0 186  00  00  00  00  00  118   65    0-.....
 21O 0 0 186  00  00  00  00  00  184   65    0-.....
 22O 0 0 196  00  00  00  00  00   49  174    0-.....
 23O 0 0 196  00  00  00  00  00   18  132    0-.....
49      17  C8H8N2O6S            1                   
  1C 1 0  22  61  00  00  00  00   88  132    0--....
  2C 1 0  12  31  00  00  00  00  109  108    0--....
  3C 1 0  21  42  00  00  00  00  151  108    0--....
  4C 0 0  32  51  75  00  00  00  172  132    0---...
  5C 1 0  41  62  00  00  00  00  151  156    0--....
  6C 1 0  11  52  00  00  00  00  109  156    0--....
  7S 0 0  45  85 156 166  00  00  208  118    0----..
  8C 0 0  75  95 105 145  00  00  257  118    0----..
  9N 0 0  85 126 136  00  00  00  280  118    0---...
 10N 0 0  85 116 176  00  00  00  255  150    0---...
 11O 0 0 106  00  00  00  00  00  248  182    0-.....
 12O 0 0  96  00  00  00  00  00  283   90    0-.....
 13O 0 0  96  00  00  00  00  00  314  132    0-.....
 14C 3 0  85  00  00  00  00  00  236   94    0-.....
 15O 0 0  76  00  00  00  00  00  208   90    0-.....
 16O 0 0  76  00  00  00  00  00  208  146    0-.....
 17O 0 0 106  00  00  00  00  00  277  183    0-.....
50      15  C8H8N2O4S            1                   
  1C 1 0  22  61  00  00  00  00   88  132    0--....
  2C 1 0  12  31  00  00  00  00  109  108    0--....
  3C 1 0  21  42  00  00  00  00  151  108    0--....
  4C 0 0  32  51  75  00  00  00  172  132    0---...
  5C 1 0  41  62  00  00  00  00  151  156    0--....
  6C 1 0  11  52  00  00  00  00  109  156    0--....
  7S 0 0  45  85  00  00  00  00  208  118    0--....
  8C 0 0  75  95 105 145  00  00  257  118    0----..
  9N 0 0  85 126 136  00  00  00  280  118    0---...
 10N 0 0  85 116 156  00  00  00  255  150    0---...
 11O 0 0 106  00  00  00  00  00  248  182    0-.....
 12O 0 0  96  00  00  00  00  00  283   90    0-.....
 13O 0 0  96  00  00  00  00  00  314  132    0-.....
 14C 3 0  85  00  00  00  00  00  236   94    0-.....
 15O 0 0 106  00  00  00  00  00  277  183    0-.....
51      21  C8H6N4O8S            1                   
  1C 0 0  22  61 175  00  00  00   88  132    0---...
  2C 1 0  12  31  00  00  00  00  109  108    0--....
  3C 1 0  21  42  00  00  00  00  151  108    0--....
  4C 0 0  32  51  75  00  00  00  172  132    0---...
  5C 0 0  41  62 165  00  00  00  151  156    0---...
  6C 1 0  11  52  00  00  00  00  109  156    0--....
  7S 0 0  45  85  00  00  00  00  208  118    0--....
  8C 0 0  75  95 105 145  00  00  257  118    0----..
  9N 0 0  85 126 136  00  00  00  280  118    0---...
 10N 0 0  85 116 156  00  00  00  255  150    0---...
 11O 0 0 106  00  00  00  00  00  248  182    0-.....
 12O 0 0  96  00  00  00  00  00  283   90    0-.....
 13O 0 0  96  00  00  00  00  00  314  132    0-.....
 14C 3 0  85  00  00  00  00  00  236   94    0-.....
 15O 0 0 106  00  00  00  00  00  277  183    0-.....
 16N 0 0  55 206 216  00  00  00  151  184    0---...
 17N 0 0  15 186 196  00  00  00   67  156    0---...
 18O 0 0 176  00  00  00  00  00   84  182    0-.....
 19O 0 0 176  00  00  00  00  00   28  156    0-.....
 20O 0 0 166  00  00  00  00  00  184  199    0-.....
 21O 0 0 166  00  00  00  00  00  118  199    0-.....
52       8  C3H3N3O2             1                   
  1N 0 0  25  76  86  00  00  00  133   81    0---...
  2C 0 0  15  31  62  00  00  00  154  105    0---...
  3C 1 0  21  42  00  00  00  00  196  105    0--....
  4N 0 0  32  51  00  00  00  00  217  129    0--....
  5N 1 0  41  61  00  00  00  00  181  143    0--....
  6C 1 0  51  22  00  00  00  00  145  129    0--....
  7O 0 0  16  00  00  00  00  00   94   81    0-.....
  8O 0 0  16  00  00  00  00  00  150   55    0-.....
53       9  C3H4N4O2             1                    
  1N 0 0  21  52  00  00  00  00  152   88    0--.... 
  2C 0 0  11  32  75  00  00  00  194   88    0---... 
  3N 0 0  22  41  00  00  00  00  194  116    0--.... 
  4N 0 0  31  51  65  00  00  00  173  140    0---... 
  5C 1 0  12  41  00  00  00  00  152  116    0--.... 
  6C 3 0  45  00  00  00  00  00  173  168    0-..... 
  7N 0 0  25  86  96  00  00  00  236   88    0---...
  8O 0 0  76  00  00  00  00  00  257   64    0-.....
  9O 0 0  76  00  00  00  00  00  257  112    0-.....
54       9  C5H4N2O2             1                   
  1C 1 0  22  61  00  00  00  00  150   67    0--....
  2C 1 0  12  31  00  00  00  00  129   91    0--....
  3C 1 0  21  42  00  00  00  00  129  119    0--....
  4N 0 0  32  51  00  00  00  00  150  143    0--....
  5C 0 0  41  62  75  00  00  00  171  119    0---...
  6C 1 0  52  11  00  00  00  00  171   91    0--....
  7N 0 0  55  86  96  00  00  00  207  133    0---...
  8O 0 0  76  00  00  00  00  00  241  119    0-.....
  9O 0 0  76  00  00  00  00  00  210  161    0-.....
55       9  C5H4N2O2             1                   
  1C 0 0  22  61  75  00  00  00  150   67    0---...
  2C 1 0  12  31  00  00  00  00  129   91    0--....
  3C 1 0  21  42  00  00  00  00  129  119    0--....
  4N 0 0  32  51  00  00  00  00  150  143    0--....
  5C 1 0  41  62  00  00  00  00  171  119    0--....
  6C 1 0  11  52  00  00  00  00  171   91    0--....
  7N 0 0  15  86  96  00  00  00  150   39    0---...
  8O 0 0  76  00  00  00  00  00  117   24    0-.....
  9O 0 0  76  00  00  00  00  00  183   24    0-.....
56      10  C5H5N3O2             1                   
  1C 1 0  22  61  00  00  00  00  150   67    0--....
  2C 1 0  12  31  00  00  00  00  129   91    0--....
  3C 0 0  21  42  75  00  00  00  129  119    0---...
  4N 0 0  32  51  00  00  00  00  150  143    0--....
  5C 0 0  41  62  85  00  00  00  171  119    0---...
  6C 1 0  11  52  00  00  00  00  171   91    0--....
  7N 0 0  35  96 106  00  00  00   87  119    0---...
  8N 2 0  55  00  00  00  00  00  213  119    0-.....
  9O 0 0  76  00  00  00  00  00   66  143    0-.....
 10O 0 0  76  00  00  00  00  00   66   95    0-.....
57      12  C5H3N3O4             1                   
  1C 1 0  22  61  00  00  00  00  150   67    0--....
  2C 0 0  12  31  85  00  00  00  129   91    0---...
  3C 1 0  21  42  00  00  00  00  129  119    0--....
  4N 0 0  32  51  00  00  00  00  150  143    0--....
  5C 1 0  41  62  00  00  00  00  171  119    0--....
  6C 0 0  11  52  75  00  00  00  171   91    0---...
  7N 0 0  65 116 126  00  00  00  213   91    0---...
  8N 0 0  25  96 106  00  00  00   87   91    0---...
  9O 0 0  86  00  00  00  00  00   66  115    0-.....
 10O 0 0  86  00  00  00  00  00   66   67    0-.....
 11O 0 0  76  00  00  00  00  00  234   67    0-.....
 12O 0 0  76  00  00  00  00  00  234  115    0-.....
58       9  C6H5NO2              1                   
  1C 1 0  22  61  00  00  00  00  182   82    0--....
  2C 1 0  12  31  00  00  00  00  146   96    0--....
  3C 1 0  21  42  00  00  00  00  146  124    0--....
  4C 0 0  32  51  75  00  00  00  182  138    0---...
  5C 1 0  41  62  00  00  00  00  218  124    0--....
  6C 1 0  52  11  00  00  00  00  218   96    0--....
  7N 0 0  45  86  96  00  00  00  182  166    0---...
  8O 0 0  76  00  00  00  00  00  215  181    0-.....
  9O 0 0  76  00  00  00  00  00  149  181    0-.....
59      10  C6ClH4NO2            1                   
  1C 0 0  22  61 105  00  00  00  182   82    0---...
  2C 1 0  12  31  00  00  00  00  146   96    0--....
  3C 1 0  21  42  00  00  00  00  146  124    0--....
  4C 0 0  32  51  75  00  00  00  182  138    0---...
  5C 1 0  41  62  00  00  00  00  218  124    0--....
  6C 1 0  11  52  00  00  00  00  218   96    0--....
  7N 0 0  45  86  96  00  00  00  182  166    0---...
  8O 0 0  76  00  00  00  00  00  215  181    0-.....
  9O 0 0  76  00  00  00  00  00  149  181    0-.....
 10CL0 0  15  00  00  00  00  00  182   54    0-.....
60      10  C6ClH4NO2            1                   
  1C 1 0  22  61  00  00  00  00  182   82    0--....
  2C 0 0  12  31 105  00  00  00  146   96    0---...
  3C 1 0  21  42  00  00  00  00  146  124    0--....
  4C 0 0  32  51  75  00  00  00  182  138    0---...
  5C 1 0  41  62  00  00  00  00  218  124    0--....
  6C 1 0  11  52  00  00  00  00  218   96    0--....
  7N 0 0  45  86  96  00  00  00  182  166    0---...
  8O 0 0  76  00  00  00  00  00  215  181    0-.....
  9O 0 0  76  00  00  00  00  00  149  181    0-.....
 10CL0 0  25  00  00  00  00  00  110   82    0-.....
61      10  C6ClH4NO2            1                   
  1C 1 0  22  61  00  00  00  00  182   82    0--....
  2C 1 0  12  31  00  00  00  00  146   96    0--....
  3C 1 0  21  42  00  00  00  00  146  124    0--....
  4C 0 0  32  51  75  00  00  00  182  138    0---...
  5C 0 0  41  62 105  00  00  00  218  124    0---...
  6C 1 0  11  52  00  00  00  00  218   96    0--....
  7N 0 0  45  86  96  00  00  00  182  166    0---...
  8O 0 0  76  00  00  00  00  00  215  181    0-.....
  9O 0 0  76  00  00  00  00  00  149  181    0-.....
 10CL0 0  55  00  00  00  00  00  260  124    0-.....
62      10  BrC6H4NO2            1                   
  1C 0 0  22  61 105  00  00  00  182   82    0---...
  2C 1 0  12  31  00  00  00  00  146   96    0--....
  3C 1 0  21  42  00  00  00  00  146  124    0--....
  4C 0 0  32  51  75  00  00  00  182  138    0---...
  5C 1 0  41  62  00  00  00  00  218  124    0--....
  6C 1 0  11  52  00  00  00  00  218   96    0--....
  7N 0 0  45  86  96  00  00  00  182  166    0---...
  8O 0 0  76  00  00  00  00  00  215  181    0-.....
  9O 0 0  76  00  00  00  00  00  149  181    0-.....
 10BR0 0  15  00  00  00  00  00  182   54    0-.....
63      10  BrC6H4NO2            1                   
  1C 1 0  22  61  00  00  00  00  182   82    0--....
  2C 0 0  12  31 105  00  00  00  146   96    0---...
  3C 1 0  21  42  00  00  00  00  146  124    0--....
  4C 0 0  32  51  75  00  00  00  182  138    0---...
  5C 1 0  41  62  00  00  00  00  218  124    0--....
  6C 1 0  11  52  00  00  00  00  218   96    0--....
  7N 0 0  45  86  96  00  00  00  182  166    0---...
  8O 0 0  76  00  00  00  00  00  215  181    0-.....
  9O 0 0  76  00  00  00  00  00  149  181    0-.....
 10BR0 0  25  00  00  00  00  00  110   82    0-.....
64      10  C6H4INO2             1                   
  1C 0 0  22  61 105  00  00  00  182   82    0---...
  2C 1 0  12  31  00  00  00  00  146   96    0--....
  3C 1 0  21  42  00  00  00  00  146  124    0--....
  4C 0 0  32  51  75  00  00  00  182  138    0---...
  5C 1 0  41  62  00  00  00  00  218  124    0--....
  6C 1 0  11  52  00  00  00  00  218   96    0--....
  7N 0 0  45  86  96  00  00  00  182  166    0---...
  8O 0 0  76  00  00  00  00  00  215  181    0-.....
  9O 0 0  76  00  00  00  00  00  149  181    0-.....
 10I 0 0  15  00  00  00  00  00  182   54    0-.....
65      10  C6H5NO3              1                   
  1C 1 0  22  61  00  00  00  00  182   82    0--....
  2C 1 0  12  31  00  00  00  00  146   96    0--....
  3C 1 0  21  42  00  00  00  00  146  124    0--....
  4C 0 0  32  51  75  00  00  00  182  138    0---...
  5C 1 0  41  62  00  00  00  00  218  124    0--....
  6C 0 0  11  52 105  00  00  00  218   96    0---...
  7N 0 0  45  86  96  00  00  00  182  166    0---...
  8O 0 0  76  00  00  00  00  00  215  181    0-.....
  9O 0 0  76  00  00  00  00  00  149  181    0-.....
 10O 1 0  65  00  00  00  00  00  254   82    0-.....
66      10  C6H6N2O2             1                   
  1C 1 0  22  61  00  00  00  00  182   82    0--....
  2C 0 0  12  31 105  00  00  00  146   96    0---...
  3C 1 0  21  42  00  00  00  00  146  124    0--....
  4C 0 0  32  51  75  00  00  00  182  138    0---...
  5C 1 0  41  62  00  00  00  00  218  124    0--....
  6C 1 0  11  52  00  00  00  00  218   96    0--....
  7N 0 0  45  86  96  00  00  00  182  166    0---...
  8O 0 0  76  00  00  00  00  00  215  181    0-.....
  9O 0 0  76  00  00  00  00  00  149  181    0-.....
 10N 2 0  25  00  00  00  00  00  110   82    0-.....
67      10  C6H6N2O2             1                   
  1C 0 0  22  61 105  00  00  00  182   82    0---...
  2C 1 0  12  31  00  00  00  00  146   96    0--....
  3C 1 0  21  42  00  00  00  00  146  124    0--....
  4C 0 0  32  51  75  00  00  00  182  138    0---...
  5C 1 0  41  62  00  00  00  00  218  124    0--....
  6C 1 0  11  52  00  00  00  00  218   96    0--....
  7N 0 0  45  86  96  00  00  00  182  166    0---...
  8O 0 0  76  00  00  00  00  00  215  181    0-.....
  9O 0 0  76  00  00  00  00  00  149  181    0-.....
 10N 2 0  15  00  00  00  00  00  182   54    0-.....
68      12  C6H4N2O4             1                   
  1C 1 0  22  61  00  00  00  00  182   82    0--....
  2C 0 0  12  31 105  00  00  00  146   96    0---...
  3C 1 0  21  42  00  00  00  00  146  124    0--....
  4C 0 0  32  51  75  00  00  00  182  138    0---...
  5C 1 0  41  62  00  00  00  00  218  124    0--....
  6C 1 0  11  52  00  00  00  00  218   96    0--....
  7N 0 0  45  86  96  00  00  00  182  166    0---...
  8O 0 0  76  00  00  00  00  00  215  181    0-.....
  9O 0 0  76  00  00  00  00  00  149  181    0-.....
 10N 0 0  25 116 126  00  00  00  110   82    0---...
 11O 0 0 106  00  00  00  00  00   76   96    0-.....
 12O 0 0 106  00  00  00  00  00  107   54    0-.....
69      12  C6H4N2O4             1                   
  1C 0 0  22  61 105  00  00  00  182   82    0---...
  2C 1 0  12  31  00  00  00  00  146   96    0--....
  3C 1 0  21  42  00  00  00  00  146  124    0--....
  4C 0 0  32  51  75  00  00  00  182  138    0---...
  5C 1 0  41  62  00  00  00  00  218  124    0--....
  6C 1 0  11  52  00  00  00  00  218   96    0--....
  7N 0 0  45  86  96  00  00  00  182  166    0---...
  8O 0 0  76  00  00  00  00  00  215  181    0-.....
  9O 0 0  76  00  00  00  00  00  149  181    0-.....
 10N 0 0  15 116 126  00  00  00  182   54    0---...
 11O 0 0 106  00  00  00  00  00  149   39    0-.....
 12O 0 0 106  00  00  00  00  00  215   39    0-.....
70      15  C6H3N3O6             1                   
  1C 1 0  22  61  00  00  00  00  182   82    0--....
  2C 0 0  12  31 105  00  00  00  146   96    0---...
  3C 1 0  21  42  00  00  00  00  146  124    0--....
  4C 0 0  32  51  75  00  00  00  182  138    0---...
  5C 1 0  41  62  00  00  00  00  218  124    0--....
  6C 0 0  11  52 135  00  00  00  218   96    0---...
  7N 0 0  45  86  96  00  00  00  182  166    0---...
  8O 0 0  76  00  00  00  00  00  215  181    0-.....
  9O 0 0  76  00  00  00  00  00  149  181    0-.....
 10N 0 0  25 116 126  00  00  00  110   82    0---...
 11O 0 0 106  00  00  00  00  00   76   96    0-.....
 12O 0 0 106  00  00  00  00  00  107   54    0-.....
 13N 0 0  65 146 156  00  00  00  254   82    0---...
 14O 0 0 136  00  00  00  00  00  257   54    0-.....
 15O 0 0 136  00  00  00  00  00  288   96    0-.....
71      10  C7H7NO2              1                   
  1C 1 0  22  61  00  00  00  00  182   82    0--....
  2C 0 0  12  31 105  00  00  00  146   96    0---...
  3C 1 0  21  42  00  00  00  00  146  124    0--....
  4C 0 0  32  51  75  00  00  00  182  138    0---...
  5C 1 0  41  62  00  00  00  00  218  124    0--....
  6C 1 0  11  52  00  00  00  00  218   96    0--....
  7N 0 0  45  86  96  00  00  00  182  166    0---...
  8O 0 0  76  00  00  00  00  00  215  181    0-.....
  9O 0 0  76  00  00  00  00  00  149  181    0-.....
 10C 3 0  25  00  00  00  00  00  110   82    0-.....
72      10  C7H7NO2              1                   
  1C 0 0  22  61 105  00  00  00  182   82    0---...
  2C 1 0  12  31  00  00  00  00  146   96    0--....
  3C 1 0  21  42  00  00  00  00  146  124    0--....
  4C 0 0  32  51  75  00  00  00  182  138    0---...
  5C 1 0  41  62  00  00  00  00  218  124    0--....
  6C 1 0  11  52  00  00  00  00  218   96    0--....
  7N 0 0  45  86  96  00  00  00  182  166    0---...
  8O 0 0  76  00  00  00  00  00  215  181    0-.....
  9O 0 0  76  00  00  00  00  00  149  181    0-.....
 10C 3 0  15  00  00  00  00  00  182   54    0-.....
73      11  C7H5NO3              1                   
  1C 0 0  22  61 105  00  00  00  182   82    0---...
  2C 1 0  12  31  00  00  00  00  146   96    0--....
  3C 1 0  21  42  00  00  00  00  146  124    0--....
  4C 0 0  32  51  75  00  00  00  182  138    0---...
  5C 1 0  41  62  00  00  00  00  218  124    0--....
  6C 1 0  11  52  00  00  00  00  218   96    0--....
  7N 0 0  45  86  96  00  00  00  182  166    0---...
  8O 0 0  76  00  00  00  00  00  215  181    0-.....
  9O 0 0  76  00  00  00  00  00  149  181    0-.....
 10C 1 0  15 116  00  00  00  00  182   54    0--....
 11O 0 0 106  00  00  00  00  00  224   54    0-.....
74      12  C8H7NO3              1                   
  1C 0 0  22  61 105  00  00  00  182   82    0---...
  2C 1 0  12  31  00  00  00  00  146   96    0--....
  3C 1 0  21  42  00  00  00  00  146  124    0--....
  4C 0 0  32  51  75  00  00  00  182  138    0---...
  5C 1 0  41  62  00  00  00  00  218  124    0--....
  6C 1 0  11  52  00  00  00  00  218   96    0--....
  7N 0 0  45  86  96  00  00  00  182  166    0---...
  8O 0 0  76  00  00  00  00  00  215  181    0-.....
  9O 0 0  76  00  00  00  00  00  149  181    0-.....
 10C 0 0  15 116 125  00  00  00  182   54    0---...
 11O 0 0 106  00  00  00  00  00  224   54    0-.....
 12C 3 0 105  00  00  00  00  00  161   30    0-.....
75      13  C8H8N2O3             1                   
  1C 0 0  22  61 105  00  00  00  182   82    0---...
  2C 1 0  12  31  00  00  00  00  146   96    0--....
  3C 1 0  21  42  00  00  00  00  146  124    0--....
  4C 0 0  32  51  75  00  00  00  182  138    0---...
  5C 1 0  41  62  00  00  00  00  218  124    0--....
  6C 1 0  11  52  00  00  00  00  218   96    0--....
  7N 0 0  45  86  96  00  00  00  182  166    0---...
  8O 0 0  76  00  00  00  00  00  215  181    0-.....
  9O 0 0  76  00  00  00  00  00  149  181    0-.....
 10N 1 0  15 115  00  00  00  00  182   54    0--....
 11C 0 0 105 126 135  00  00  00  161   30    0---...
 12O 0 0 116  00  00  00  00  00  119   30    0-.....
 13C 3 0 115  00  00  00  00  00  203   30    0-.....
76      15  C12H9NO2             1                   
  1C 1 0  21  62  00  00  00  00   62  131    0--....
  2C 1 0  11  32  00  00  00  00   83  107    0--....
  3C 1 0  22  41  00  00  00  00  125  107    0--....
  4C 0 0  31  52  75  00  00  00  146  131    0---...
  5C 1 0  42  61  00  00  00  00  125  155    0--....
  6C 1 0  51  12  00  00  00  00   83  155    0--....
  7C 0 0  45  81 122  00  00  00  188  131    0---...
  8C 1 0  71  92  00  00  00  00  209  107    0--....
  9C 1 0  82 101  00  00  00  00  251  107    0--....
 10C 0 0  91 112 135  00  00  00  272  131    0---...
 11C 1 0 102 121  00  00  00  00  251  155    0--....
 12C 1 0 111  72  00  00  00  00  209  155    0--....
 13N 0 0 105 146 156  00  00  00  314  131    0---...
 14O 0 0 136  00  00  00  00  00  335  107    0-.....
 15O 0 0 136  00  00  00  00  00  335  155    0-.....
77      15  C12H9NO2             1                   
  1C 1 0  21  62  00  00  00  00   62  131    0--....
  2C 1 0  11  32  00  00  00  00   83  107    0--....
  3C 1 0  22  41  00  00  00  00  125  107    0--....
  4C 0 0  31  52  75  00  00  00  146  131    0---...
  5C 1 0  42  61  00  00  00  00  125  155    0--....
  6C 1 0  12  51  00  00  00  00   83  155    0--....
  7C 0 0  45  81 122  00  00  00  188  131    0---...
  8C 1 0  71  92  00  00  00  00  209  107    0--....
  9C 0 0  82 101 135  00  00  00  251  107    0---...
 10C 1 0  91 112  00  00  00  00  272  131    0--....
 11C 1 0 102 121  00  00  00  00  251  155    0--....
 12C 1 0  72 111  00  00  00  00  209  155    0--....
 13N 0 0  95 146 156  00  00  00  272   83    0---...
 14O 0 0 136  00  00  00  00  00  255   57    0-.....
 15O 0 0 136  00  00  00  00  00  311   83    0-.....
78      15  C12H9NO2             1                   
  1C 1 0  21  62  00  00  00  00   62  131    0--....
  2C 1 0  11  32  00  00  00  00   83  107    0--....
  3C 1 0  22  41  00  00  00  00  125  107    0--....
  4C 0 0  31  52  75  00  00  00  146  131    0---...
  5C 1 0  42  61  00  00  00  00  125  155    0--....
  6C 1 0  12  51  00  00  00  00   83  155    0--....
  7C 0 0  45  81 122  00  00  00  188  131    0---...
  8C 0 0  71  92 135  00  00  00  209  107    0---...
  9C 1 0  82 101  00  00  00  00  251  107    0--....
 10C 1 0  91 112  00  00  00  00  272  131    0--....
 11C 1 0 102 121  00  00  00  00  251  155    0--....
 12C 1 0  72 111  00  00  00  00  209  155    0--....
 13N 0 0  85 146 156  00  00  00  209   79    0---...
 14O 0 0 136  00  00  00  00  00  176   64    0-.....
 15O 0 0 136  00  00  00  00  00  242   64    0-.....
79       8  CH3N3O4              1                   
  1C 3 0  25  00  00  00  00  00  120  118    0-.....
  2N 0 0  15  35  45  00  00  00  162  118    0---...
  3N 0 0  25  56  66  00  00  00  183   94    0---...
  4N 0 0  25  76  86  00  00  00  183  142    0---...
  5O 0 0  36  00  00  00  00  00  166   68    0-.....
  6O 0 0  36  00  00  00  00  00  222   94    0-.....
  7O 0 0  46  00  00  00  00  00  222  142    0-.....
  8O 0 0  46  00  00  00  00  00  166  168    0-.....
80       6  C2H6N2O2             1                   
  1C 3 0  25  00  00  00  00  00  120  118    0-.....
  2N 0 0  15  35  45  00  00  00  162  118    0---...
  3N 0 0  25  56  66  00  00  00  183   94    0---...
  4C 3 0  25  00  00  00  00  00  183  142    0-.....
  5O 0 0  36  00  00  00  00  00  166   68    0-.....
  6O 0 0  36  00  00  00  00  00  222   94    0-.....
81       9  C2H5N3O4             1                   
  1C 2 0  25  95  00  00  00  00  120  118    0--....
  2N 0 0  15  35  45  00  00  00  162  118    0---...
  3N 0 0  25  56  66  00  00  00  183   94    0---...
  4N 0 0  25  76  86  00  00  00  183  142    0---...
  5O 0 0  36  00  00  00  00  00  166   68    0-.....
  6O 0 0  36  00  00  00  00  00  222   94    0-.....
  7O 0 0  46  00  00  00  00  00  222  142    0-.....
  8O 0 0  46  00  00  00  00  00  166  168    0-.....
  9C 3 0  15  00  00  00  00  00   99   94    0-.....
82      10  C3H7N3O4             1                   
  1C 2 0  25  95  00  00  00  00  120  118    0--....
  2N 0 0  15  35  45  00  00  00  162  118    0---...
  3N 0 0  25  56  66  00  00  00  183   94    0---...
  4N 0 0  25  76  86  00  00  00  183  142    0---...
  5O 0 0  36  00  00  00  00  00  166   68    0-.....
  6O 0 0  36  00  00  00  00  00  222   94    0-.....
  7O 0 0  46  00  00  00  00  00  222  142    0-.....
  8O 0 0  46  00  00  00  00  00  166  168    0-.....
  9C 2 0  15 105  00  00  00  00   84  132    0--....
 10C 3 0  95  00  00  00  00  00   84  104    0-.....
83      15  C3H6N6O6             1                   
  1N 0 0  21  61  75  00  00  00  204  105    0---...
  2C 2 0  11  31  00  00  00  00  168  119    0--....
  3N 0 0  21  41  95  00  00  00  168  147    0---...
  4C 2 0  31  51  00  00  00  00  204  161    0--....
  5N 0 0  41  61  85  00  00  00  240  147    0---...
  6C 2 0  51  11  00  00  00  00  240  119    0--....
  7N 0 0  15 106 116  00  00  00  204   77    0---...
  8N 0 0  55 146 156  00  00  00  276  161    0---...
  9N 0 0  35 126 136  00  00  00  132  161    0---...
 10O 0 0  76  00  00  00  00  00  171   62    0-.....
 11O 0 0  76  00  00  00  00  00  237   62    0-.....
 12O 0 0  96  00  00  00  00  00  129  189    0-.....
 13O 0 0  96  00  00  00  00  00   98  147    0-.....
 14O 0 0  86  00  00  00  00  00  310  147    0-.....
 15O 0 0  86  00  00  00  00  00  279  189    0-.....
84       9  C4H8N2O3             1                    
  1O 0 0  21  61  00  00  00  00  207   81    0--.... 
  2C 2 0  11  31  00  00  00  00  171   95    0--.... 
  3C 2 0  21  41  00  00  00  00  171  123    0--.... 
  4N 0 0  31  51  75  00  00  00  207  137    0---... 
  5C 2 0  41  61  00  00  00  00  243  123    0--.... 
  6C 2 0  11  51  00  00  00  00  243   95    0--.... 
  7N 0 0  45  86  96  00  00  00  207  165    0---... 
  8O 0 0  76  00  00  00  00  00  240  180    0-..... 
  9O 0 0  76  00  00  00  00  00  174  180    0-..... 
85       8  C4H10N2O2            1                   
  1C 2 0  25  65  00  00  00  00  120  118    0--....
  2N 0 0  15  35  75  00  00  00  162  118    0---...
  3N 0 0  25  46  56  00  00  00  183   94    0---...
  4O 0 0  36  00  00  00  00  00  166   68    0-.....
  5O 0 0  36  00  00  00  00  00  222   94    0-.....
  6C 3 0  15  00  00  00  00  00   99  142    0-.....
  7C 2 0  25  85  00  00  00  00  162  146    0--....
  8C 3 0  75  00  00  00  00  00  126  160    0-.....
86      11  C4H9N3O4             1                   
  1C 2 0  25  65  00  00  00  00  120  118    0--....
  2N 0 0  15  35  75  00  00  00  162  118    0---...
  3N 0 0  25  46  56  00  00  00  183   94    0---...
  4O 0 0  36  00  00  00  00  00  166   68    0-.....
  5O 0 0  36  00  00  00  00  00  222   94    0-.....
  6C 2 0  15 105  00  00  00  00   99  142    0--....
  7N 0 0  25  86  96  00  00  00  162  146    0---...
  8O 0 0  76  00  00  00  00  00  195  161    0-.....
  9O 0 0  76  00  00  00  00  00  129  161    0-.....
 10C 2 0  65 115  00  00  00  00   78  118    0--....
 11C 3 0 105  00  00  00  00  00   99   94    0-.....
87       9  C5H10N2O2            1                   
  1C 2 0  21  61  00  00  00  00  206   75    0--....
  2C 2 0  11  31  00  00  00  00  170   89    0--....
  3C 2 0  21  41  00  00  00  00  170  117    0--....
  4N 0 0  31  51  75  00  00  00  206  131    0---...
  5C 2 0  41  61  00  00  00  00  242  117    0--....
  6C 2 0  51  11  00  00  00  00  242   89    0--....
  7N 0 0  45  86  96  00  00  00  206  159    0---...
  8O 0 0  76  00  00  00  00  00  239  174    0-.....
  9O 0 0  76  00  00  00  00  00  173  174    0-.....
88       5  CH3NO3               1                   
  1O 0 0  25  55  00  00  00  00  134  117    0--....
  2N 0 0  15  36  46  00  00  00  176  117    0---...
  3O 0 0  26  00  00  00  00  00  197   93    0-.....
  4O 0 0  26  00  00  00  00  00  197  141    0-.....
  5C 3 0  15  00  00  00  00  00  113   93    0-.....
89      20  C4H8N8O8             1                   
  1C 2 0  21  81  00  00  00  00  192   82    0--....
  2N 0 0  11  31 105  00  00  00  156   96    0---...
  3C 2 0  21  41  00  00  00  00  135  120    0--....
  4N 0 0  31  51 115  00  00  00  156  144    0---...
  5C 2 0  41  61  00  00  00  00  192  158    0--....
  6N 0 0  51  71 125  00  00  00  228  144    0---...
  7C 2 0  61  81  00  00  00  00  249  120    0--....
  8N 0 0  71  11  95  00  00  00  228   96    0---...
  9N 0 0  85 176 186  00  00  00  264   82    0---...
 10N 0 0  25 136 146  00  00  00  120   82    0---...
 11N 0 0  45 156 166  00  00  00  120  158    0---...
 12N 0 0  65 196 206  00  00  00  264  158    0---...
 13O 0 0 106  00  00  00  00  00   86   96    0-.....
 14O 0 0 106  00  00  00  00  00  117   54    0-.....
 15O 0 0 116  00  00  00  00  00  117  186    0-.....
 16O 0 0 116  00  00  00  00  00   86  144    0-.....
 17O 0 0  96  00  00  00  00  00  267   54    0-.....
 18O 0 0  96  00  00  00  00  00  298   96    0-.....
 19O 0 0 126  00  00  00  00  00  298  144    0-.....
 20O 0 0 126  00  00  00  00  00  267  186    0-.....
90       6  C2H5NO3              1                   
  1O 0 0  25  55  00  00  00  00  134  117    0--....
  2N 0 0  15  36  46  00  00  00  176  117    0---...
  3O 0 0  26  00  00  00  00  00  197   93    0-.....
  4O 0 0  26  00  00  00  00  00  197  141    0-.....
  5C 2 0  15  65  00  00  00  00  113   93    0--....
  6C 3 0  55  00  00  00  00  00   77  107    0-.....
91      10  C2H4N2O6             1                   
  1O 0 0  25  55  00  00  00  00  134  117    0--....
  2N 0 0  15  36  46  00  00  00  176  117    0---...
  3O 0 0  26  00  00  00  00  00  197   93    0-.....
  4O 0 0  26  00  00  00  00  00  197  141    0-.....
  5C 2 0  15  65  00  00  00  00  113   93    0--....
  6C 2 0  55  75  00  00  00  00   77  107    0--....
  7O 0 0  65  85  00  00  00  00   56   83    0--....
  8N 0 0  75  96 106  00  00  00   77   59    0---...
  9O 0 0  86  00  00  00  00  00   60   33    0-.....
 10O 0 0  86  00  00  00  00  00  116   59    0-.....
92      11  C3H6N2O6             1                   
  1C 3 0  25  00  00  00  00  00  129  137    0-.....
  2C 1 0  15  35  65  00  00  00  165  123    0---...
  3C 2 0  25  45  00  00  00  00  186  147    0--....
  4O 0 0  35  55  00  00  00  00  228  147    0--....
  5N 0 0  45 106 116  00  00  00  249  171    0---...
  6O 0 0  25  75  00  00  00  00  165   95    0--....
  7N 0 0  65  86  96  00  00  00  186   71    0---...
  8O 0 0  76  00  00  00  00  00  169   45    0-.....
  9O 0 0  76  00  00  00  00  00  225   71    0-.....
 10O 0 0  56  00  00  00  00  00  288  171    0-.....
 11O 0 0  56  00  00  00  00  00  232  197    0-.....
93      12  C4H6N2O6             1                   
  1N 0 0  25  96 106  00  00  00  106   78    0---...
  2O 0 0  15  35  00  00  00  00  106  106    0--....
  3C 2 0  25  45  00  00  00  00  142  120    0--....
  4C 1 0  35  56  00  00  00  00  184  120    0--....
  5C 1 0  46  65  00  00  00  00  184  148    0--....
  6C 2 0  55  75  00  00  00  00  220  162    0--....
  7O 0 0  65  85  00  00  00  00  256  148    0--....
  8N 0 0  75 116 126  00  00  00  277  172    0---...
  9O 0 0  16  00  00  00  00  00   73   63    0-.....
 10O 0 0  16  00  00  00  00  00  139   63    0-.....
 11O 0 0  86  00  00  00  00  00  316  172    0-.....
 12O 0 0  86  00  00  00  00  00  260  198    0-.....
