1       13  C-N4O8               1
  1N 0 0  25 106 116  00  00  00  200  152    0---...
  2C 0 0  15  35  45  55  00  00  200  124    0----..
  3N 0 0  25 126 136  00  00  00  242  124    0---...
  4N 0 0  25  66  76  00  00  00  200   96    0---...
  5N 0 0  25  86  96  00  00  00  158  124    0---...
  6O 0 0  46  00  00  00  00  00  167   81    0-.....
  7O 0 0  46  00  00  00  00  00  233   81    0-.....
  8O 0 0  56  00  00  00  00  00  137  148    0-.....
  9O 0 0  56  00  00  00  00  00  137  100    0-.....
 10O 0 0  16  00  00  00  00  00  233  167    0-.....
 11O 0 0  16  00  00  00  00  00  167  167    0-.....
 12O 0 0  36  00  00  00  00  00  263  100    0-.....
 13O 0 0  36  00  00  00  00  00  263  148    0-.....
2        4  CH3-NO2              1
  1C 3 0  25  00  00  00  00  00  219  151    0-.....
  2N 0 0  15  36  46  00  00  00  219  123    0---...
  3O 0 0  26  00  00  00  00  00  186  108    0-.....
  4O 0 0  26  00  00  00  00  00  252  108    0-.....
3        7  CH4-N4O2             1
  1N 2 0  25  00  00  00  00  00  142  121    0-.....
  2C 0 0  15  35  46  00  00  00  178  107    0---...
  3N 2 0  25  00  00  00  00  00  214  121    0-.....
  4N 0 0  26  55  00  00  00  00  178  135    0--....
  5N 0 0  45  66  76  00  00  00  199  159    0---...
  6O 0 0  56  00  00  00  00  00  178  183    0-.....
  7O 0 0  56  00  00  00  00  00  235  173    0-.....
4        9  CH4-N4O4             1
  1C 2 0  25  65  00  00  00  00  226  188    0--....
  2N 1 0  15  35  00  00  00  00  206  162    0--....
  3N 0 0  25  46  56  00  00  00  206  131    0---...
  4O 0 0  36  00  00  00  00  00  174  116    0-.....
  5O 0 0  36  00  00  00  00  00  240  116    0-.....
  6N 1 0  15  75  00  00  00  00  262  174    0--....
  7N 0 0  65  86  96  00  00  00  304  174    0---...
  8O 0 0  76  00  00  00  00  00  325  150    0-.....
  9O 0 0  76  00  00  00  00  00  325  198    0-.....
5        8  C2H2-N4O2            1
  1N 0 0  22  51  00  00  00  00  205  160    0--....
  2C 1 0  12  31  00  00  00  00  176  133    0--....
  3N 1 0  21  41  00  00  00  00  205  106    0--....
  4C 0 0  31  52  65  00  00  00  252  117    0---...
  5N 0 0  42  11  00  00  00  00  252  149    0--....
  6N 0 0  45  76  86  00  00  00  294  117    0---...
  7O 0 0  66  00  00  00  00  00  315   93    0-.....
  8O 0 0  66  00  00  00  00  00  315  141    0-.....
6        9  C2H2-N4O3            1
  1N 1 0  21  51  00  00  00  00  205  160    0--....
  2C 0 0  11  31  96  00  00  00  176  133    0---...
  3N 0 0  21  42  00  00  00  00  205  106    0--....
  4C 0 0  32  51  65  00  00  00  252  117    0---...
  5N 1 0  11  41  00  00  00  00  252  149    0--....
  6N 0 0  45  76  86  00  00  00  294  117    0---...
  7O 0 0  66  00  00  00  00  00  315   93    0-.....
  8O 0 0  66  00  00  00  00  00  315  141    0-.....
  9O 0 0  26  00  00  00  00  00  134  133    0-.....
7       12  C2H3-N3O7            1
  1N 0 0  25 106 116  00  00  00  200  152    0---...
  2C 0 0  15  35  45  55  00  00  200  124    0----..
  3C 2 0  25 125  00  00  00  00  238  143    0--....
  4N 0 0  25  66  76  00  00  00  200   96    0---...
  5N 0 0  25  86  96  00  00  00  158  124    0---...
  6O 0 0  46  00  00  00  00  00  167   81    0-.....
  7O 0 0  46  00  00  00  00  00  233   81    0-.....
  8O 0 0  56  00  00  00  00  00  137  148    0-.....
  9O 0 0  56  00  00  00  00  00  137  100    0-.....
 10O 0 0  16  00  00  00  00  00  233  167    0-.....
 11O 0 0  16  00  00  00  00  00  167  167    0-.....
 12O 1 0  35  00  00  00  00  00  284  124    0-.....
9       10  C2H6-N4O4            1
  1N 1 0  25  65  00  00  00  00  128  144    0--....
  2C 2 0  15  35  00  00  00  00  170  144    0--....
  3C 2 0  25  45  00  00  00  00  206  130    0--....
  4N 1 0  35  55  00  00  00  00  242  144    0--....
  5N 0 0  45  96 106  00  00  00  242  172    0---...
  6N 0 0  15  76  86  00  00  00  128  172    0---...
  7O 0 0  66  00  00  00  00  00  161  187    0-.....
  8O 0 0  66  00  00  00  00  00   95  187    0-.....
  9O 0 0  56  00  00  00  00  00  275  187    0-.....
 10O 0 0  56  00  00  00  00  00  209  187    0-.....
10      17  C6H3-N3O8            1
  1C 0 0  31  22 105  00  00  00  156   89    0---...
  2C 1 0  61  12  00  00  00  00  156  123    0--....
  3C 0 0  11  42  75  00  00  00  192   75    0---...
  4C 0 0  32  51  95  00  00  00  228   89    0---...
  5C 0 0  41  62  85  00  00  00  228  117    0---...
  6C 0 0  52  21 115  00  00  00  192  131    0---...
  7O 1 0  35  00  00  00  00  00  191   50    0-.....
  8O 1 0  55  00  00  00  00  00  264  131    0-.....
  9N 0 0  45 126 136  00  00  00  264   75    0---...
 10N 0 0  15 166 176  00  00  00  120   75    0---...
 11N 0 0  65 146 156  00  00  00  192  159    0---...
 12O 0 0  96  00  00  00  00  00  267   47    0-.....
 13O 0 0  96  00  00  00  00  00  298   89    0-.....
 14O 0 0 116  00  00  00  00  00  225  174    0-.....
 15O 0 0 116  00  00  00  00  00  159  174    0-.....
 16O 0 0 106  00  00  00  00  00   86   89    0-.....
 17O 0 0 106  00  00  00  00  00  117   47    0-.....
13      16  C3H5-N5O8            1
  1N 0 0 125 135 165  00  00  00  144  154    0---...
  2C 0 0  35  45  55 165  00  00  228  154    0----..
  3N 0 0  25  66  76  00  00  00  228  126    0---...
  4N 0 0  25  86  96  00  00  00  270  154    0---...
  5N 0 0  25 106 116  00  00  00  228  182    0---...
  6O 0 0  36  00  00  00  00  00  195  111    0-.....
  7O 0 0  36  00  00  00  00  00  261  111    0-.....
  8O 0 0  46  00  00  00  00  00  291  130    0-.....
  9O 0 0  46  00  00  00  00  00  291  178    0-.....
 10O 0 0  56  00  00  00  00  00  261  197    0-.....
 11O 0 0  56  00  00  00  00  00  195  197    0-.....
 12C 3 0  15  00  00  00  00  00  108  140    0-.....
 13N 0 0  15 146 156  00  00  00  123  178    0---...
 14O 0 0 136  00  00  00  00  00  140  204    0-.....
 15O 0 0 136  00  00  00  00  00   84  178    0-.....
 16C 2 0  15  25  00  00  00  00  192  140    0--....
14      15  C3H6-N6O6            1
  1N 0 0  61  75  21  00  00  00  157  145    0---...
  2C 2 0  31  11  00  00  00  00  178  121    0--....
  3N 0 0  21  41  85  00  00  00  220  121    0---...
  4C 2 0  31  51  00  00  00  00  241  145    0--....
  5N 0 0  41  61  95  00  00  00  220  169    0---...
  6C 2 0  51  11  00  00  00  00  178  169    0--....
  7N 0 0  15 106 116  00  00  00  115  145    0---...
  8N 0 0  35 126 136  00  00  00  241   97    0---...
  9N 0 0  55 146 156  00  00  00  241  193    0---...
 10O 0 0  76  00  00  00  00  00   94  169    0-.....
 11O 0 0  76  00  00  00  00  00   94  121    0-.....
 12O 0 0  86  00  00  00  00  00  224   71    0-.....
 13O 0 0  86  00  00  00  00  00  280   97    0-.....
 14O 0 0  96  00  00  00  00  00  280  193    0-.....
 15O 0 0  96  00  00  00  00  00  224  219    0-.....
15      11  C3H8-N4O4            1
  1C 3 0  25  00  00  00  00  00   85  138    0-.....
  2N 0 0  15  35  75  00  00  00  127  138    0---...
  3C 2 0  25  45  00  00  00  00  170  127    0--....
  4C 2 0  35  55  00  00  00  00  211  138    0--....
  5N 1 0  45  65  00  00  00  00  253  138    0--....
  6N 0 0  55 106 116  00  00  00  253  166    0---...
  7N 0 0  25  86  96  00  00  00  127  110    0---...
  8O 0 0  76  00  00  00  00  00   94   95    0-.....
  9O 0 0  76  00  00  00  00  00  160   95    0-.....
 10O 0 0  66  00  00  00  00  00  286  181    0-.....
 11O 0 0  66  00  00  00  00  00  220  181    0-.....
16      17  C3H2-N10O4           1
  1N 0 0  22  31  00  00  00  00   99  139    0--....
  2C 1 0  12  51  00  00  00  00   78  115    0--....
  3C 0 0  11  42  75  00  00  00  120  115    0---...
  4N 0 0  32  51  00  00  00  00  120   87    0--....
  5N 0 0  41  21  65  00  00  00   78   87    0---...
  6N 0 0  55 146 156  00  00  00   78   59    0---...
  7N 0 0  35  86  00  00  00  00  162  115    0--....
  8N 0 0  76  92 101  00  00  00  204  115    0---...
  9N 0 0  82 121  00  00  00  00  240  101    0--....
 10N 0 0  81 112  00  00  00  00  240  129    0--....
 11C 1 0 102 121  00  00  00  00  282  129    0--....
 12N 0 0 111  91 135  00  00  00  282  101    0---...
 13N 0 0 125 166 176  00  00  00  318   87    0---...
 14O 0 0  66  00  00  00  00  00   45   44    0-.....
 15O 0 0  66  00  00  00  00  00  111   44    0-.....
 16O 0 0 136  00  00  00  00  00  321   59    0-.....
 17O 0 0 136  00  00  00  00  00  352  101    0-.....
17      15  C4H4-N6O5            1
  1C 2 0  21  61  00  00  00  00  120  137    0--....
  2C 2 0  11  31  00  00  00  00  120  109    0--....
  3N 0 0  21  41 105  00  00  00  141   85    0---...
  4C 0 0  31  51  72  00  00  00  162  109    0---...
  5C 0 0  41  61  82  00  00  00  162  137    0---...
  6N 0 0  51  11 115  00  00  00  141  161    0---...
  7N 0 0  42  91  00  00  00  00  204  109    0--....
  8N 0 0  52  91  00  00  00  00  204  137    0--....
  9O 0 0  81  71  00  00  00  00  240  123    0--....
 10N 0 0  35 126 136  00  00  00  141   57    0---...
 11N 0 0  65 146 156  00  00  00  141  189    0---...
 12O 0 0 106  00  00  00  00  00  108   42    0-.....
 13O 0 0 106  00  00  00  00  00  174   42    0-.....
 14O 0 0 116  00  00  00  00  00  174  204    0-.....
 15O 0 0 116  00  00  00  00  00  108  204    0-.....
18      16  C4H4-N6O6            1
  1C 0 0  21  51  96  00  00  00  130  140    0---...
  2N 1 0  11  31  00  00  00  00  166  126    0--....
  3C 1 0  21  41  81  00  00  00  208  126    0---...
  4C 1 0  31  51  61  00  00  00  208  154    0---...
  5N 0 0  41  11 125  00  00  00  166  154    0---...
  6N 1 0  41  71  00  00  00  00  250  154    0--....
  7C 0 0  61  81 106  00  00  00  286  140    0---...
  8N 0 0  71  31 115  00  00  00  250  126    0---...
  9O 0 0  16  00  00  00  00  00   88  140    0-.....
 10O 0 0  76  00  00  00  00  00  328  140    0-.....
 11N 0 0  85 136 146  00  00  00  250   98    0---...
 12N 0 0  55 156 166  00  00  00  166  182    0---...
 13O 0 0 116  00  00  00  00  00  217   83    0-.....
 14O 0 0 116  00  00  00  00  00  283   83    0-.....
 15O 0 0 126  00  00  00  00  00  199  197    0-.....
 16O 0 0 126  00  00  00  00  00  133  197    0-.....
19      26  C4H4-N8O14           1
  1N 0 0  25 105 145  00  00  00  120  146    0---...
  2C 2 0  15  35  00  00  00  00  141  170    0--....
  3C 0 0  25  45  55 225  00  00  177  184    0----..
  4N 0 0  35  66  76  00  00  00  198  160    0---...
  5N 0 0  35  86  96  00  00  00  156  208    0---...
  6O 0 0  46  00  00  00  00  00  181  134    0-.....
  7O 0 0  46  00  00  00  00  00  237  160    0-.....
  8O 0 0  56  00  00  00  00  00  173  234    0-.....
  9O 0 0  56  00  00  00  00  00  117  208    0-.....
 10C 2 0  15 115  00  00  00  00  102  122    0--....
 11C 0 0 105 125 135 215  00  00  120   90    0----..
 12N 0 0 115 156 166  00  00  00  162   90    0---...
 13N 0 0 115 176 186  00  00  00   78   90    0---...
 14N 0 0  15 196 206  00  00  00   84  160    0---...
 15O 0 0 126  00  00  00  00  00  183   66    0-.....
 16O 0 0 126  00  00  00  00  00  183  114    0-.....
 17O 0 0 136  00  00  00  00  00   57  114    0-.....
 18O 0 0 136  00  00  00  00  00   57   66    0-.....
 19O 0 0 146  00  00  00  00  00   81  188    0-.....
 20O 0 0 146  00  00  00  00  00   50  146    0-.....
 21N 0 0 115 236 246  00  00  00  120   62    0---...
 22N 0 0  35 256 266  00  00  00  213  198    0---...
 23O 0 0 216  00  00  00  00  00   87   47    0-.....
 24O 0 0 216  00  00  00  00  00  153   47    0-.....
 25O 0 0 226  00  00  00  00  00  247  184    0-.....
 26O 0 0 226  00  00  00  00  00  216  226    0-.....
21      26  C4H4-F4N8O10         1
  1N 0 0  25 115 165  00  00  00  120  146    0---...
  2C 2 0  15  35  00  00  00  00  141  170    0--....
  3C 0 0  25  45  55  65  00  00  177  184    0----..
  4N 0 0  35  76  86  00  00  00  198  160    0---...
  5N 0 0  35 255 265  00  00  00  213  198    0---...
  6N 0 0  35  96 106  00  00  00  156  208    0---...
  7O 0 0  46  00  00  00  00  00  181  134    0-.....
  8O 0 0  46  00  00  00  00  00  237  160    0-.....
  9O 0 0  66  00  00  00  00  00  173  234    0-.....
 10O 0 0  66  00  00  00  00  00  117  208    0-.....
 11C 2 0  15 125  00  00  00  00  100  124    0--....
 12C 0 0 115 135 145 155  00  00  120   90    0----..
 13N 0 0 125 176 186  00  00  00  162   90    0---...
 14N 0 0 125 235 245  00  00  00  120   62    0---...
 15N 0 0 125 196 206  00  00  00   78   90    0---...
 16N 0 0  15 216 226  00  00  00   84  160    0---...
 17O 0 0 136  00  00  00  00  00  183   66    0-.....
 18O 0 0 136  00  00  00  00  00  183  114    0-.....
 19O 0 0 156  00  00  00  00  00   57  114    0-.....
 20O 0 0 156  00  00  00  00  00   57   66    0-.....
 21O 0 0 166  00  00  00  00  00   81  188    0-.....
 22O 0 0 166  00  00  00  00  00   50  146    0-.....
 23F 0 0 145  00  00  00  00  00   99   38    0-.....
 24F 0 0 145  00  00  00  00  00  141   38    0-.....
 25F 0 0  55  00  00  00  00  00  255  198    0-.....
 26F 0 0  55  00  00  00  00  00  234  222    0-.....
23      15  C4H5-N3O8            1
  1C 3 0  25  00  00  00  00  00  103  144    0-.....
  2O 0 0  15  35  00  00  00  00  145  144    0--....
  3C 0 0  25  45  96  00  00  00  187  144    0---...
  4C 2 0  35  55  00  00  00  00  226  134    0--....
  5C 0 0  45  65  75  85  00  00  271  144    0----..
  6N 0 0  55 106 116  00  00  00  271  116    0---...
  7N 0 0  55 146 156  00  00  00  271  172    0---...
  8N 0 0  55 126 136  00  00  00  313  144    0---...
  9O 0 0  36  00  00  00  00  00  187  172    0-.....
 10O 0 0  66  00  00  00  00  00  238  101    0-.....
 11O 0 0  66  00  00  00  00  00  304  101    0-.....
 12O 0 0  86  00  00  00  00  00  334  120    0-.....
 13O 0 0  86  00  00  00  00  00  334  168    0-.....
 14O 0 0  76  00  00  00  00  00  304  187    0-.....
 15O 0 0  76  00  00  00  00  00  238  187    0-.....
24      15  C4H6-N4O7            1
  1C 3 0  25  00  00  00  00  00  103  144    0-.....
  2C 0 0  15  35 156  00  00  00  145  144    0---...
  3N 1 0  25  45  00  00  00  00  187  144    0--....
  4C 2 0  35  55  00  00  00  00  230  131    0--....
  5C 0 0  45  65  75  85  00  00  271  144    0----..
  6N 0 0  55  96 106  00  00  00  271  116    0---...
  7N 0 0  55 136 146  00  00  00  271  172    0---...
  8N 0 0  55 116 126  00  00  00  313  144    0---...
  9O 0 0  66  00  00  00  00  00  238  101    0-.....
 10O 0 0  66  00  00  00  00  00  304  101    0-.....
 11O 0 0  86  00  00  00  00  00  334  120    0-.....
 12O 0 0  86  00  00  00  00  00  334  168    0-.....
 13O 0 0  76  00  00  00  00  00  304  187    0-.....
 14O 0 0  76  00  00  00  00  00  238  187    0-.....
 15O 0 0  26  00  00  00  00  00  145  116    0-.....
25      16  C4H6-N4O8            1
  1N 0 0  25 156 166  00  00  00  103  144    0---...
  2C 2 0  15  35  00  00  00  00  147  133    0--....
  3C 2 0  25  45  00  00  00  00  187  144    0--....
  4C 2 0  35  55  00  00  00  00  227  132    0--....
  5C 0 0  45  65  75  85  00  00  271  144    0----..
  6N 0 0  55  96 106  00  00  00  271  116    0---...
  7N 0 0  55 136 146  00  00  00  271  172    0---...
  8N 0 0  55 116 126  00  00  00  313  144    0---...
  9O 0 0  66  00  00  00  00  00  238  101    0-.....
 10O 0 0  66  00  00  00  00  00  304  101    0-.....
 11O 0 0  86  00  00  00  00  00  334  120    0-.....
 12O 0 0  86  00  00  00  00  00  334  168    0-.....
 13O 0 0  76  00  00  00  00  00  304  187    0-.....
 14O 0 0  76  00  00  00  00  00  238  187    0-.....
 15O 0 0  16  00  00  00  00  00   82  168    0-.....
 16O 0 0  16  00  00  00  00  00   82  120    0-.....
26      21  C4H6-N6O11           1
  1C 2 0  25 155  00  00  00  00  103  144    0--....
  2C 2 0  15  35  00  00  00  00  139  133    0--....
  3N 0 0  25  45 175  00  00  00  187  144    0---...
  4C 2 0  35  55  00  00  00  00  228  134    0--....
  5C 0 0  45  65  75  85  00  00  271  144    0----..
  6N 0 0  55  96 106  00  00  00  271  116    0---...
  7N 0 0  55 136 146  00  00  00  271  172    0---...
  8N 0 0  55 116 126  00  00  00  313  144    0---...
  9O 0 0  66  00  00  00  00  00  238  101    0-.....
 10O 0 0  66  00  00  00  00  00  304  101    0-.....
 11O 0 0  86  00  00  00  00  00  334  120    0-.....
 12O 0 0  86  00  00  00  00  00  334  168    0-.....
 13O 0 0  76  00  00  00  00  00  304  187    0-.....
 14O 0 0  76  00  00  00  00  00  238  187    0-.....
 15O 0 0  15 165  00  00  00  00   82  120    0--....
 16N 0 0 155 186 196  00  00  00  103   96    0---...
 17N 0 0  35 206 216  00  00  00  166  168    0---...
 18O 0 0 166  00  00  00  00  00   86   70    0-.....
 19O 0 0 166  00  00  00  00  00  142   96    0-.....
 20O 0 0 176  00  00  00  00  00  183  194    0-.....
 21O 0 0 176  00  00  00  00  00  127  168    0-.....
27      16  C4H7-FN4O7           1
  1N 0 0  25  95 105  00  00  00  108  131    0---...
  2C 2 0  15  35  00  00  00  00  144  145    0--....
  3O 0 0  25  45  00  00  00  00  180  131    0--....
  4C 2 0  35  55  00  00  00  00  216  145    0--....
  5C 0 0  45  65  75  85  00  00  252  131    0----..
  6F 0 0  55  00  00  00  00  00  294  131    0-.....
  7N 0 0  55 136 146  00  00  00  252  103    0---...
  8N 0 0  55 156 166  00  00  00  252  159    0---...
  9N 0 0  15 116 126  00  00  00  108  159    0---...
 10C 3 0  15  00  00  00  00  00   87  107    0-.....
 11O 0 0  96  00  00  00  00  00  141  174    0-.....
 12O 0 0  96  00  00  00  00  00   75  174    0-.....
 13O 0 0  76  00  00  00  00  00  219   88    0-.....
 14O 0 0  76  00  00  00  00  00  285   88    0-.....
 15O 0 0  86  00  00  00  00  00  285  174    0-.....
 16O 0 0  86  00  00  00  00  00  219  174    0-.....
28      20  C4H8-N8O8            1
  1N 0 0  21  81  95  00  00  00  166   66    0---...
  2C 2 0  11  31  00  00  00  00  208   66    0--....
  3N 0 0  21  41 105  00  00  00  244   80    0---...
  4C 2 0  31  51  00  00  00  00  244  108    0--....
  5N 0 0  41  61 115  00  00  00  223  132    0---...
  6C 2 0  51  71  00  00  00  00  181  132    0--....
  7N 0 0  61  81 125  00  00  00  145  118    0---...
  8C 2 0  71  11  00  00  00  00  145   90    0--....
  9N 0 0  15 136 146  00  00  00  145   42    0---...
 10N 0 0  35 156 166  00  00  00  280   66    0---...
 11N 0 0  55 176 186  00  00  00  244  156    0---...
 12N 0 0  75 196 206  00  00  00  109  132    0---...
 13O 0 0  96  00  00  00  00  00  106   42    0-.....
 14O 0 0  96  00  00  00  00  00  162   16    0-.....
 15O 0 0 106  00  00  00  00  00  283   38    0-.....
 16O 0 0 106  00  00  00  00  00  314   80    0-.....
 17O 0 0 116  00  00  00  00  00  283  156    0-.....
 18O 0 0 116  00  00  00  00  00  227  182    0-.....
 19O 0 0 126  00  00  00  00  00  106  160    0-.....
 20O 0 0 126  00  00  00  00  00   75  118    0-.....
29      26  C5H4-N6O15           1
  1N 0 0  25 156 166  00  00  00   85  129    0---...
  2C 0 0  15  35 125 135  00  00  127  129    0----..
  3C 2 0  25  45  00  00  00  00  163  115    0--....
  4O 0 0  35  55  00  00  00  00  199  129    0--....
  5C 0 0  45  65 146  00  00  00  235  115    0---...
  6O 0 0  55  75  00  00  00  00  271  129    0--....
  7C 2 0  65  85  00  00  00  00  307  115    0--....
  8C 0 0  75  95 105 115  00  00  343  129    0----..
  9N 0 0  85 236 246  00  00  00  385  129    0---...
 10N 0 0  85 216 226  00  00  00  343  101    0---...
 11N 0 0  85 256 266  00  00  00  343  157    0---...
 12N 0 0  25 176 186  00  00  00  127  101    0---...
 13N 0 0  25 196 206  00  00  00  127  157    0---...
 14O 0 0  56  00  00  00  00  00  235   87    0-.....
 15O 0 0  16  00  00  00  00  00   64  153    0-.....
 16O 0 0  16  00  00  00  00  00   64  105    0-.....
 17O 0 0 126  00  00  00  00  00   94   86    0-.....
 18O 0 0 126  00  00  00  00  00  160   86    0-.....
 19O 0 0 136  00  00  00  00  00  160  172    0-.....
 20O 0 0 136  00  00  00  00  00   94  172    0-.....
 21O 0 0 106  00  00  00  00  00  310   86    0-.....
 22O 0 0 106  00  00  00  00  00  376   86    0-.....
 23O 0 0  96  00  00  00  00  00  406  105    0-.....
 24O 0 0  96  00  00  00  00  00  406  153    0-.....
 25O 0 0 116  00  00  00  00  00  376  172    0-.....
 26O 0 0 116  00  00  00  00  00  310  172    0-.....
30      27  C5H4-N8O14           1
  1N 0 0  25 146 156  00  00  00   85  129    0---...
  2C 0 0  15  35 125 135  00  00  127  129    0----..
  3C 0 0  25  45 266  00  00  00  163  115    0---...
  4N 1 0  35  55  00  00  00  00  199  129    0--....
  5C 2 0  45  65  00  00  00  00  235  115    0--....
  6N 1 0  55  75  00  00  00  00  271  129    0--....
  7C 0 0  65  85 276  00  00  00  307  115    0---...
  8C 0 0  75  95 105 115  00  00  343  129    0----..
  9N 0 0  85 226 236  00  00  00  385  129    0---...
 10N 0 0  85 206 216  00  00  00  343  101    0---...
 11N 0 0  85 246 256  00  00  00  343  157    0---...
 12N 0 0  25 166 176  00  00  00  127  101    0---...
 13N 0 0  25 186 196  00  00  00  127  157    0---...
 14O 0 0  16  00  00  00  00  00   64  153    0-.....
 15O 0 0  16  00  00  00  00  00   64  105    0-.....
 16O 0 0 126  00  00  00  00  00   94   86    0-.....
 17O 0 0 126  00  00  00  00  00  160   86    0-.....
 18O 0 0 136  00  00  00  00  00  160  172    0-.....
 19O 0 0 136  00  00  00  00  00   94  172    0-.....
 20O 0 0 106  00  00  00  00  00  310   86    0-.....
 21O 0 0 106  00  00  00  00  00  376   86    0-.....
 22O 0 0  96  00  00  00  00  00  406  105    0-.....
 23O 0 0  96  00  00  00  00  00  406  153    0-.....
 24O 0 0 116  00  00  00  00  00  376  172    0-.....
 25O 0 0 116  00  00  00  00  00  310  172    0-.....
 26O 0 0  36  00  00  00  00  00  163  143    0-.....
 27O 0 0  76  00  00  00  00  00  307  143    0-.....
31      26  C5H5-N7O14           1
  1C 0 0  25  75  85  95  00  00   90  130    0----..
  2C 2 0  15  35  00  00  00  00  126  116    0--....
  3C 1 0  25  45  65  00  00  00  162  130    0---...
  4C 2 0  35  55  00  00  00  00  198  116    0--....
  5C 0 0  45 105 115 125  00  00  234  130    0----..
  6N 0 0  35 186 266  00  00  00  162  158    0---...
  7N 0 0  15 176 256  00  00  00   90  158    0---...
  8N 0 0  15 156 166  00  00  00   90  102    0---...
  9N 0 0  15 136 146  00  00  00   48  130    0---...
 10N 0 0  55 196 206  00  00  00  234  102    0---...
 11N 0 0  55 236 246  00  00  00  234  158    0---...
 12N 0 0  55 216 226  00  00  00  276  130    0---...
 13O 0 0  96  00  00  00  00  00   27  154    0-.....
 14O 0 0  96  00  00  00  00  00   27  106    0-.....
 15O 0 0  86  00  00  00  00  00   57   87    0-.....
 16O 0 0  86  00  00  00  00  00  123   87    0-.....
 17O 0 0  76  00  00  00  00  00   57  173    0-.....
 18O 0 0  66  00  00  00  00  00  129  173    0-.....
 19O 0 0 106  00  00  00  00  00  201   87    0-.....
 20O 0 0 106  00  00  00  00  00  267   87    0-.....
 21O 0 0 126  00  00  00  00  00  297  106    0-.....
 22O 0 0 126  00  00  00  00  00  297  154    0-.....
 23O 0 0 116  00  00  00  00  00  267  173    0-.....
 24O 0 0 116  00  00  00  00  00  201  173    0-.....
 25O 0 0  76  00  00  00  00  00   90  186    0-.....
 26O 0 0  66  00  00  00  00  00  162  186    0-.....
32      21  C5H6-F2N4O10         1
  1F 0 0  25  00  00  00  00  00   46  117    0-.....
  2C 0 0  15  35  95 105  00  00   88  117    0----..
  3C 2 0  25  45  00  00  00  00  124  103    0--....
  4O 0 0  35  55  00  00  00  00  160  117    0--....
  5C 2 0  45  65  00  00  00  00  196  103    0--....
  6O 0 0  55  75  00  00  00  00  232  117    0--....
  7C 2 0  65  85  00  00  00  00  268  103    0--....
  8C 0 0  75 155 165 175  00  00  304  117    0----..
  9N 0 0  25 116 126  00  00  00   88   89    0---...
 10N 0 0  25 136 146  00  00  00   88  145    0---...
 11O 0 0  96  00  00  00  00  00   55   74    0-.....
 12O 0 0  96  00  00  00  00  00  121   74    0-.....
 13O 0 0 106  00  00  00  00  00  121  160    0-.....
 14O 0 0 106  00  00  00  00  00   55  160    0-.....
 15N 0 0  85 186 196  00  00  00  325   93    0---...
 16N 0 0  85 206 216  00  00  00  304  145    0---...
 17F 0 0  85  00  00  00  00  00  346  117    0-.....
 18O 0 0 156  00  00  00  00  00  308   67    0-.....
 19O 0 0 156  00  00  00  00  00  364   93    0-.....
 20O 0 0 166  00  00  00  00  00  337  160    0-.....
 21O 0 0 166  00  00  00  00  00  271  160    0-.....
33      21  C5H6-N6O10           1
  1C 0 0  21  61  75  85  00  00  203   73    0----..
  2C 2 0  11  31  00  00  00  00  167   87    0--....
  3C 0 0  21  41  95 105  00  00  167  115    0----..
  4N 0 0  31  51 115  00  00  00  203  129    0---...
  5C 2 0  41  61  00  00  00  00  239  115    0--....
  6C 2 0  51  11  00  00  00  00  239   87    0--....
  7N 0 0  15 146 156  00  00  00  239   59    0---...
  8N 0 0  15 126 136  00  00  00  182   49    0---...
  9N 0 0  35 166 176  00  00  00  125  115    0---...
 10N 0 0  35 186 196  00  00  00  167  143    0---...
 11N 0 0  45 206 216  00  00  00  239  143    0---...
 12O 0 0  86  00  00  00  00  00  143   49    0-.....
 13O 0 0  86  00  00  00  00  00  199   23    0-.....
 14O 0 0  76  00  00  00  00  00  242   31    0-.....
 15O 0 0  76  00  00  00  00  00  273   73    0-.....
 16O 0 0  96  00  00  00  00  00  104  139    0-.....
 17O 0 0  96  00  00  00  00  00  104   91    0-.....
 18O 0 0 106  00  00  00  00  00  200  158    0-.....
 19O 0 0 106  00  00  00  00  00  134  158    0-.....
 20O 0 0 116  00  00  00  00  00  273  129    0-.....
 21O 0 0 116  00  00  00  00  00  242  171    0-.....
34      32  C5H4-N10O17          1
  1N 0 0  25 146 156  00  00  00  115  126    0---...
  2C 0 0  15  35  95 105  00  00  157  126    0----..
  3C 2 0  25  45  00  00  00  00  193  112    0--....
  4N 0 0  35  55 305  00  00  00  229  126    0---...
  5C 0 0  45  65 276  00  00  00  265  112    0---...
  6N 0 0  55  75 265  00  00  00  301  126    0---...
  7C 2 0  65  85  00  00  00  00  337  112    0--....
  8C 0 0  75 115 125 135  00  00  379  112    0----..
  9N 0 0  25 166 176  00  00  00  157   98    0---...
 10N 0 0  25 186 196  00  00  00  157  154    0---...
 11N 0 0  85 206 216  00  00  00  379   84    0---...
 12N 0 0  85 226 236  00  00  00  421  112    0---...
 13N 0 0  85 246 256  00  00  00  379  140    0---...
 14O 0 0  16  00  00  00  00  00   94  150    0-.....
 15O 0 0  16  00  00  00  00  00   94  102    0-.....
 16O 0 0  96  00  00  00  00  00  124   83    0-.....
 17O 0 0  96  00  00  00  00  00  190   83    0-.....
 18O 0 0 106  00  00  00  00  00  162  188    0-.....
 19O 0 0 106  00  00  00  00  00  124  169    0-.....
 20O 0 0 116  00  00  00  00  00  346   69    0-.....
 21O 0 0 116  00  00  00  00  00  412   69    0-.....
 22O 0 0 126  00  00  00  00  00  442   88    0-.....
 23O 0 0 126  00  00  00  00  00  442  136    0-.....
 24O 0 0 136  00  00  00  00  00  412  155    0-.....
 25O 0 0 136  00  00  00  00  00  346  155    0-.....
 26N 0 0  65 286 296  00  00  00  301  154    0---...
 27O 0 0  56  00  00  00  00  00  265   84    0-.....
 28O 0 0 266  00  00  00  00  00  334  169    0-.....
 29O 0 0 266  00  00  00  00  00  297  192    0-.....
 30N 0 0  45 316 326  00  00  00  229  154    0---...
 31O 0 0 306  00  00  00  00  00  262  169    0-.....
 32O 0 0 306  00  00  00  00  00  196  169    0-.....
35      26  C5H6-N8O13           1
  1C 0 0  25  35 266  00  00  00  104  134    0---...
  2N 1 0  15  95  00  00  00  00  104  106    0--....
  3N 1 0  15  45  00  00  00  00  104  162    0--....
  4C 2 0  35  55  00  00  00  00  140  176    0--....
  5C 0 0  45  65  75  85  00  00  182  176    0----..
  6N 0 0  55 206 216  00  00  00  182  148    0---...
  7N 0 0  55 226 236  00  00  00  224  176    0---...
  8N 0 0  55 246 256  00  00  00  182  204    0---...
  9C 2 0  25 105  00  00  00  00  125   82    0--....
 10C 0 0  95 115 125 135  00  00  161   68    0----..
 11N 0 0 105 146 156  00  00  00  140   44    0---...
 12N 0 0 105 166 176  00  00  00  197   54    0---...
 13N 0 0 105 186 196  00  00  00  182   92    0---...
 14O 0 0 116  00  00  00  00  00  101   44    0-.....
 15O 0 0 116  00  00  00  00  00  157   18    0-.....
 16O 0 0 126  00  00  00  00  00  200   26    0-.....
 17O 0 0 126  00  00  00  00  00  231   68    0-.....
 18O 0 0 136  00  00  00  00  00  221   92    0-.....
 19O 0 0 136  00  00  00  00  00  165  118    0-.....
 20O 0 0  66  00  00  00  00  00  149  133    0-.....
 21O 0 0  66  00  00  00  00  00  215  133    0-.....
 22O 0 0  76  00  00  00  00  00  245  152    0-.....
 23O 0 0  76  00  00  00  00  00  245  200    0-.....
 24O 0 0  86  00  00  00  00  00  215  219    0-.....
 25O 0 0  86  00  00  00  00  00  149  219    0-.....
 26O 0 0  16  00  00  00  00  00   62  134    0-.....
36      27  C5H6-N8O14           1
  1N 0 0  25 166 176  00  00  00   80  128    0---...
  2C 0 0  15  35  45  55  00  00  122  128    0----..
  3N 0 0  25 146 156  00  00  00  122  100    0---...
  4N 0 0  25 186 196  00  00  00  122  156    0---...
  5C 2 0  25  65  00  00  00  00  162  120    0--....
  6N 0 0  55  75  85  00  00  00  206  128    0---...
  7N 0 0  65 206 216  00  00  00  206  156    0---...
  8C 2 0  65  95  00  00  00  00  248  128    0--....
  9C 2 0  85 105  00  00  00  00  284  114    0--....
 10C 0 0  95 115 125 135  00  00  326  114    0----..
 11N 0 0 105 226 236  00  00  00  326   86    0---...
 12N 0 0 105 246 256  00  00  00  368  114    0---...
 13N 0 0 105 266 276  00  00  00  326  142    0---...
 14O 0 0  36  00  00  00  00  00   89   85    0-.....
 15O 0 0  36  00  00  00  00  00  155   85    0-.....
 16O 0 0  16  00  00  00  00  00   59  152    0-.....
 17O 0 0  16  00  00  00  00  00   59  104    0-.....
 18O 0 0  46  00  00  00  00  00  155  171    0-.....
 19O 0 0  46  00  00  00  00  00   89  171    0-.....
 20O 0 0  76  00  00  00  00  00  239  171    0-.....
 21O 0 0  76  00  00  00  00  00  173  171    0-.....
 22O 0 0 116  00  00  00  00  00  293   71    0-.....
 23O 0 0 116  00  00  00  00  00  359   71    0-.....
 24O 0 0 126  00  00  00  00  00  389   90    0-.....
 25O 0 0 126  00  00  00  00  00  389  138    0-.....
 26O 0 0 136  00  00  00  00  00  359  157    0-.....
 27O 0 0 136  00  00  00  00  00  293  157    0-.....
37      31  C5H6-N10O16          1
  1N 0 0  25 126 136  00  00  00   80  128    0---...
  2C 0 0  15  35  45  55  00  00  122  128    0----..
  3N 0 0  25 106 116  00  00  00  122  100    0---...
  4N 0 0  25 146 156  00  00  00  122  156    0---...
  5C 2 0  25  65  00  00  00  00  159  117    0--....
  6N 0 0  55  75  85  00  00  00  206  128    0---...
  7N 0 0  65 166 176  00  00  00  206  156    0---...
  8C 2 0  65  95  00  00  00  00  248  128    0--....
  9N 0 0  85 185 195  00  00  00  284  114    0---...
 10O 0 0  36  00  00  00  00  00   89   85    0-.....
 11O 0 0  36  00  00  00  00  00  155   85    0-.....
 12O 0 0  16  00  00  00  00  00   59  152    0-.....
 13O 0 0  16  00  00  00  00  00   59  104    0-.....
 14O 0 0  46  00  00  00  00  00  155  171    0-.....
 15O 0 0  46  00  00  00  00  00   89  171    0-.....
 16O 0 0  76  00  00  00  00  00  239  171    0-.....
 17O 0 0  76  00  00  00  00  00  173  171    0-.....
 18N 0 0  95 246 256  00  00  00  305  138    0---...
 19C 2 0  95 205  00  00  00  00  284   86    0--....
 20C 0 0 195 215 225 235  00  00  320   72    0----..
 21N 0 0 205 306 316  00  00  00  299   48    0---...
 22N 0 0 205 266 276  00  00  00  341   96    0---...
 23N 0 0 205 286 296  00  00  00  356   58    0---...
 24O 0 0 186  00  00  00  00  00  344  138    0-.....
 25O 0 0 186  00  00  00  00  00  288  164    0-.....
 26O 0 0 226  00  00  00  00  00  380   96    0-.....
 27O 0 0 226  00  00  00  00  00  324  122    0-.....
 28O 0 0 236  00  00  00  00  00  359   30    0-.....
 29O 0 0 236  00  00  00  00  00  390   72    0-.....
 30O 0 0 216  00  00  00  00  00  260   48    0-.....
 31O 0 0 216  00  00  00  00  00  316   22    0-.....
38      15  C5H7-N3O7            1
  1C 3 0  25  00  00  00  00  00  101  119    0-.....
  2C 0 0  15  36  45  00  00  00  143  119    0---...
  3O 0 0  26  00  00  00  00  00  143  147    0-.....
  4C 2 0  25  55  00  00  00  00  179  105    0--....
  5C 2 0  45  65  00  00  00  00  215  119    0--....
  6C 0 0  55  75  85  95  00  00  251  105    0----..
  7N 0 0  65 106 116  00  00  00  230   81    0---...
  8N 0 0  65 126 136  00  00  00  287   91    0---...
  9N 0 0  65 146 156  00  00  00  272  129    0---...
 10O 0 0  76  00  00  00  00  00  191   81    0-.....
 11O 0 0  76  00  00  00  00  00  247   55    0-.....
 12O 0 0  86  00  00  00  00  00  290   63    0-.....
 13O 0 0  86  00  00  00  00  00  321  105    0-.....
 14O 0 0  96  00  00  00  00  00  311  129    0-.....
 15O 0 0  96  00  00  00  00  00  255  155    0-.....
39      26  C6H6-N6O14           1
  1N 0 0  25 126 136  00  00  00  122  138    0---...
  2C 0 0  15  35  45  55  00  00  164  138    0----..
  3N 0 0  25 106 116  00  00  00  164  110    0---...
  4N 0 0  25 146 156  00  00  00  164  166    0---...
  5C 2 0  25  65  00  00  00  00  206  138    0--....
  6C 2 0  55  75  00  00  00  00  227  114    0--....
  7C 0 0  65  85  96  00  00  00  263  128    0---...
  8O 0 0  75 165  00  00  00  00  305  128    0--....
  9O 0 0  76  00  00  00  00  00  263  156    0-.....
 10O 0 0  36  00  00  00  00  00  131   95    0-.....
 11O 0 0  36  00  00  00  00  00  197   95    0-.....
 12O 0 0  16  00  00  00  00  00  101  162    0-.....
 13O 0 0  16  00  00  00  00  00  101  114    0-.....
 14O 0 0  46  00  00  00  00  00  197  181    0-.....
 15O 0 0  46  00  00  00  00  00  131  181    0-.....
 16C 2 0  85 175  00  00  00  00  347  128    0--....
 17C 0 0 165 185 195 205  00  00  368  104    0----..
 18N 0 0 175 216 226  00  00  00  332   90    0---...
 19N 0 0 175 236 246  00  00  00  389   80    0---...
 20N 0 0 175 256 266  00  00  00  404  118    0---...
 21O 0 0 186  00  00  00  00  00  298  104    0-.....
 22O 0 0 186  00  00  00  00  00  329   62    0-.....
 23O 0 0 196  00  00  00  00  00  372   54    0-.....
 24O 0 0 196  00  00  00  00  00  428   80    0-.....
 25O 0 0 206  00  00  00  00  00  438  104    0-.....
 26O 0 0 206  00  00  00  00  00  407  146    0-.....
40      17  C5H7-N3O9            1
  1C 3 0  25  00  00  00  00  00   75  143    0-.....
  2C 2 0  15  35  00  00  00  00  111  129    0--....
  3O 0 0  25  45  00  00  00  00  153  129    0--....
  4C 0 0  35  56  65  00  00  00  195  129    0---...
  5O 0 0  46  00  00  00  00  00  195  157    0-.....
  6O 0 0  45  75  00  00  00  00  237  129    0--....
  7C 2 0  65  85  00  00  00  00  273  115    0--....
  8C 0 0  75  95 105 115  00  00  309  129    0----..
  9N 0 0  85 166 176  00  00  00  288  153    0---...
 10N 0 0  85 126 136  00  00  00  330  105    0---...
 11N 0 0  85 146 156  00  00  00  345  143    0---...
 12O 0 0 106  00  00  00  00  00  313   79    0-.....
 13O 0 0 106  00  00  00  00  00  369  105    0-.....
 14O 0 0 116  00  00  00  00  00  379  129    0-.....
 15O 0 0 116  00  00  00  00  00  348  171    0-.....
 16O 0 0  96  00  00  00  00  00  305  179    0-.....
 17O 0 0  96  00  00  00  00  00  249  153    0-.....
41      21  C5H8-N4O12           1
  1C 0 0  25  35  45  55  00  00  210  134    0----..
  2C 2 0  15  65  00  00  00  00  210  106    0--....
  3C 2 0  15  85  00  00  00  00  252  134    0--....
  4C 2 0  15 105  00  00  00  00  210  162    0--....
  5C 2 0  15 195  00  00  00  00  168  134    0--....
  6O 0 0  25  75  00  00  00  00  246   92    0--....
  7N 0 0  65 136 146  00  00  00  225   68    0---...
  8O 0 0  35  95  00  00  00  00  288  148    0--....
  9N 0 0  85 156 166  00  00  00  324  134    0---...
 10O 0 0  45 115  00  00  00  00  189  186    0--....
 11N 0 0 105 176 186  00  00  00  225  200    0---...
 12N 0 0 195 206 216  00  00  00   96  134    0---...
 13O 0 0  76  00  00  00  00  00  186   68    0-.....
 14O 0 0  76  00  00  00  00  00  242   42    0-.....
 15O 0 0  96  00  00  00  00  00  327  106    0-.....
 16O 0 0  96  00  00  00  00  00  358  148    0-.....
 17O 0 0 116  00  00  00  00  00  259  186    0-.....
 18O 0 0 116  00  00  00  00  00  228  228    0-.....
 19O 0 0  55 125  00  00  00  00  132  120    0--....
 20O 0 0 126  00  00  00  00  00   93  162    0-.....
 21O 0 0 126  00  00  00  00  00   62  120    0-.....
42      22  C5H8-N6O11           1
  1N 0 0  25 156 166  00  00  00   76  136    0---...
  2C 0 0  15  35  45  55  00  00  118  136    0----..
  3N 0 0  25 136 146  00  00  00  118  108    0---...
  4N 0 0  25 176 186  00  00  00  118  164    0---...
  5C 2 0  25  65  00  00  00  00  160  136    0--....
  6N 0 0  55  75  85  00  00  00  196  122    0---...
  7N 0 0  65 196 206  00  00  00  196   94    0---...
  8C 2 0  65  95  00  00  00  00  232  136    0--....
  9C 2 0  85 105  00  00  00  00  274  136    0--....
 10C 2 0  95 115  00  00  00  00  310  122    0--....
 11O 0 0 105 125  00  00  00  00  346  136    0--....
 12N 0 0 115 216 226  00  00  00  388  136    0---...
 13O 0 0  36  00  00  00  00  00   85   93    0-.....
 14O 0 0  36  00  00  00  00  00  151   93    0-.....
 15O 0 0  16  00  00  00  00  00   55  160    0-.....
 16O 0 0  16  00  00  00  00  00   55  112    0-.....
 17O 0 0  46  00  00  00  00  00  151  179    0-.....
 18O 0 0  46  00  00  00  00  00   85  179    0-.....
 19O 0 0  76  00  00  00  00  00  163   79    0-.....
 20O 0 0  76  00  00  00  00  00  229   79    0-.....
 21O 0 0 126  00  00  00  00  00  409  112    0-.....
 22O 0 0 126  00  00  00  00  00  409  160    0-.....
43      19  C5H9-N5O9            1
  1C 0 0  25  35  45 195  00  00  154  141    0----..
  2N 0 0  15 116 126  00  00  00  154  113    0---...
  3N 0 0  15 136 146  00  00  00  154  169    0---...
  4C 2 0  15  55  00  00  00  00  196  141    0--....
  5N 0 0  45  65  75  00  00  00  232  127    0---...
  6N 0 0  55 156 166  00  00  00  232   99    0---...
  7C 2 0  55  85  00  00  00  00  268  141    0--....
  8C 2 0  75  95  00  00  00  00  310  141    0--....
  9O 0 0  85 105  00  00  00  00  346  127    0--....
 10N 0 0  95 176 186  00  00  00  388  127    0---...
 11O 0 0  26  00  00  00  00  00  121   98    0-.....
 12O 0 0  26  00  00  00  00  00  187   98    0-.....
 13O 0 0  36  00  00  00  00  00  187  184    0-.....
 14O 0 0  36  00  00  00  00  00  121  184    0-.....
 15O 0 0  66  00  00  00  00  00  199   84    0-.....
 16O 0 0  66  00  00  00  00  00  265   84    0-.....
 17O 0 0 106  00  00  00  00  00  409  103    0-.....
 18O 0 0 106  00  00  00  00  00  409  151    0-.....
 19C 3 0  15  00  00  00  00  00  112  141    0-.....
44      22  C5H9-N7O10           1
  1C 3 0  25  00  00  00  00  00  139  126    0-.....
  2N 0 0  15  35  45  00  00  00  175  112    0---...
  3N 0 0  25 136 146  00  00  00  175  140    0---...
  4C 2 0  25  55  00  00  00  00  217  112    0--....
  5C 2 0  45  65  00  00  00  00  253   98    0--....
  6N 0 0  55  75  85  00  00  00  289  112    0---...
  7N 0 0  65 156 166  00  00  00  289  140    0---...
  8C 2 0  65  95  00  00  00  00  331  112    0--....
  9C 0 0  85 105 115 125  00  00  367   98    0----..
 10N 0 0  95 176 186  00  00  00  346   74    0---...
 11N 0 0  95 196 206  00  00  00  403   84    0---...
 12N 0 0  95 216 226  00  00  00  388  122    0---...
 13O 0 0  36  00  00  00  00  00  208  155    0-.....
 14O 0 0  36  00  00  00  00  00  142  155    0-.....
 15O 0 0  76  00  00  00  00  00  322  155    0-.....
 16O 0 0  76  00  00  00  00  00  256  155    0-.....
 17O 0 0 106  00  00  00  00  00  307   74    0-.....
 18O 0 0 106  00  00  00  00  00  363   48    0-.....
 19O 0 0 116  00  00  00  00  00  406   56    0-.....
 20O 0 0 116  00  00  00  00  00  437   98    0-.....
 21O 0 0 126  00  00  00  00  00  427  122    0-.....
 22O 0 0 126  00  00  00  00  00  371  148    0-.....
45      19  C5H10-N6O8           1
  1N 1 0  25  35  00  00  00  00  106  137    0--....
  2N 0 0  15 126 136  00  00  00  106  165    0---...
  3C 2 0  15  45  00  00  00  00  142  123    0--....
  4C 2 0  35  55  00  00  00  00  184  123    0--....
  5C 0 0  45  65  75  85  00  00  220  137    0----..
  6N 0 0  55 146 156  00  00  00  241  113    0---...
  7N 0 0  55 166 176  00  00  00  199  161    0---...
  8C 2 0  55  95  00  00  00  00  256  151    0--....
  9C 2 0  85 105  00  00  00  00  292  137    0--....
 10N 1 0  95 115  00  00  00  00  334  137    0--....
 11N 0 0 105 186 196  00  00  00  334  165    0---...
 12O 0 0  26  00  00  00  00  00  139  180    0-.....
 13O 0 0  26  00  00  00  00  00   73  180    0-.....
 14O 0 0  66  00  00  00  00  00  224   87    0-.....
 15O 0 0  66  00  00  00  00  00  280  113    0-.....
 16O 0 0  76  00  00  00  00  00  216  187    0-.....
 17O 0 0  76  00  00  00  00  00  160  161    0-.....
 18O 0 0 116  00  00  00  00  00  367  180    0-.....
 19O 0 0 116  00  00  00  00  00  301  180    0-.....
46      18  C6-N6O6              1
  1C 0 0  61 102  21  00  00  00  140  126    0---...
  2C 0 0  31  82  11  00  00  00  176  112    0---...
  3C 0 0  21  72  41  00  00  00  212  126    0---...
  4C 0 0  51 132  31  00  00  00  212  154    0---...
  5C 0 0  41 122  61  00  00  00  176  168    0---...
  6C 0 0  11 112  51  00  00  00  140  154    0---...
  7N 0 0  32  91  00  00  00  00  248  112    0--....
  8N 0 0  22  91 186  00  00  00  197   88    0---...
  9O 0 0  81  71  00  00  00  00  239   88    0--....
 10N 0 0  12 151  00  00  00  00   98  126    0--....
 11N 0 0  62 151 166  00  00  00   98  154    0---...
 12N 0 0  52 141  00  00  00  00  197  192    0--....
 13N 0 0  42 141 176  00  00  00  233  178    0---...
 14O 0 0 131 121  00  00  00  00  233  206    0--....
 15O 0 0 111 101  00  00  00  00   62  140    0--....
 16O 0 0 116  00  00  00  00  00   98  182    0-.....
 17O 0 0 136  00  00  00  00  00  269  164    0-.....
 18O 0 0  86  00  00  00  00  00  176   64    0-.....
47      24  C6-N6O12             1
  1C 0 0  22  61  75  00  00  00  171  133    0---...
  2C 0 0  12  31  85  00  00  00  207  119    0---...
  3C 0 0  21  42  95  00  00  00  243  133    0---...
  4C 0 0  32  51 225  00  00  00  243  161    0---...
  5C 0 0  41  62 105  00  00  00  207  175    0---...
  6C 0 0  52  11 115  00  00  00  171  161    0---...
  7N 0 0  15 206 216  00  00  00  135  119    0---...
  8N 0 0  25 126 136  00  00  00  207   91    0---...
  9N 0 0  35 146 156  00  00  00  279  119    0---...
 10N 0 0  55 166 176  00  00  00  207  203    0---...
 11N 0 0  65 186 196  00  00  00  135  175    0---...
 12O 0 0  86  00  00  00  00  00  174   76    0-.....
 13O 0 0  86  00  00  00  00  00  240   76    0-.....
 14O 0 0  96  00  00  00  00  00  282   91    0-.....
 15O 0 0  96  00  00  00  00  00  313  133    0-.....
 16O 0 0 106  00  00  00  00  00  240  218    0-.....
 17O 0 0 106  00  00  00  00  00  174  218    0-.....
 18O 0 0 116  00  00  00  00  00  132  203    0-.....
 19O 0 0 116  00  00  00  00  00  101  161    0-.....
 20O 0 0  76  00  00  00  00  00  101  133    0-.....
 21O 0 0  76  00  00  00  00  00  132   91    0-.....
 22N 0 0  45 236 246  00  00  00  279  175    0---...
 23O 0 0 226  00  00  00  00  00  313  161    0-.....
 24O 0 0 226  00  00  00  00  00  282  203    0-.....
48      22  C6H2-N6O10           1
  1C 0 0  22  61  75  00  00  00  171  133    0---...
  2C 0 0  12  31 225  00  00  00  207  119    0---...
  3C 0 0  21  42  85  00  00  00  243  133    0---...
  4C 0 0  32  51 195  00  00  00  243  161    0---...
  5C 0 0  41  62  95  00  00  00  207  175    0---...
  6C 0 0  11  52 105  00  00  00  171  161    0---...
  7N 0 0  15 176 186  00  00  00  135  119    0---...
  8N 0 0  35 116 126  00  00  00  279  119    0---...
  9N 0 0  55 136 146  00  00  00  207  203    0---...
 10N 0 0  65 156 166  00  00  00  135  175    0---...
 11O 0 0  86  00  00  00  00  00  282   91    0-.....
 12O 0 0  86  00  00  00  00  00  313  133    0-.....
 13O 0 0  96  00  00  00  00  00  240  218    0-.....
 14O 0 0  96  00  00  00  00  00  174  218    0-.....
 15O 0 0 106  00  00  00  00  00  132  203    0-.....
 16O 0 0 106  00  00  00  00  00  101  161    0-.....
 17O 0 0  76  00  00  00  00  00  101  133    0-.....
 18O 0 0  76  00  00  00  00  00  132   91    0-.....
 19N 0 0  45 206 216  00  00  00  279  175    0---...
 20O 0 0 196  00  00  00  00  00  313  161    0-.....
 21O 0 0 196  00  00  00  00  00  282  203    0-.....
 22N 2 0  25  00  00  00  00  00  207   91    0-.....
49      28  C6H2-N12O10          1
  1O 0 0  21  31  00  00  00  00   96  138    0--....
  2N 0 0  11  52  00  00  00  00  132  124    0--....
  3N 0 0  11  42  00  00  00  00  132  152    0--....
  4C 0 0  32  51  61  00  00  00  174  152    0---...
  5C 0 0  22  41  91  00  00  00  174  124    0---...
  6N 0 0  41  71 195  00  00  00  195  176    0---...
  7C 1 0  61  81 131  00  00  00  216  152    0---...
  8C 1 0  71  91 101  00  00  00  216  124    0---...
  9N 0 0  51  81 185  00  00  00  195  100    0---...
 10N 0 0  81 111 175  00  00  00  237  100    0---...
 11C 0 0 101 121 142  00  00  00  258  124    0---...
 12C 0 0 111 131 152  00  00  00  258  152    0---...
 13N 0 0  71 121 205  00  00  00  237  176    0---...
 14N 0 0 112 161  00  00  00  00  300  124    0--....
 15N 0 0 122 161  00  00  00  00  300  152    0--....
 16O 0 0 141 151  00  00  00  00  336  138    0--....
 17N 0 0 105 236 246  00  00  00  273   86    0---...
 18N 0 0  95 216 226  00  00  00  159   86    0---...
 19N 0 0  65 276 286  00  00  00  159  190    0---...
 20N 0 0 135 256 266  00  00  00  273  190    0---...
 21O 0 0 186  00  00  00  00  00  125  100    0-.....
 22O 0 0 186  00  00  00  00  00  156   58    0-.....
 23O 0 0 176  00  00  00  00  00  276   58    0-.....
 24O 0 0 176  00  00  00  00  00  307  100    0-.....
 25O 0 0 206  00  00  00  00  00  307  176    0-.....
 26O 0 0 206  00  00  00  00  00  276  218    0-.....
 27O 0 0 196  00  00  00  00  00  156  218    0-.....
 28O 0 0 196  00  00  00  00  00  125  176    0-.....
50      15  C6H3-N3O6            1
  1C 1 0  22  61  00  00  00  00  172  132    0--....
  2C 0 0  12  31  75  00  00  00  208  118    0---...
  3C 1 0  21  42  00  00  00  00  244  132    0--....
  4C 0 0  32  51  85  00  00  00  244  160    0---...
  5C 1 0  41  62  00  00  00  00  208  174    0--....
  6C 0 0  52  11  95  00  00  00  172  160    0---...
  7N 0 0  25 106 116  00  00  00  208   90    0---...
  8N 0 0  45 126 136  00  00  00  280  174    0---...
  9N 0 0  65 146 156  00  00  00  136  174    0---...
 10O 0 0  76  00  00  00  00  00  175   75    0-.....
 11O 0 0  76  00  00  00  00  00  241   75    0-.....
 12O 0 0  86  00  00  00  00  00  314  160    0-.....
 13O 0 0  86  00  00  00  00  00  283  202    0-.....
 14O 0 0  96  00  00  00  00  00  133  202    0-.....
 15O 0 0  96  00  00  00  00  00  102  160    0-.....
51      16  C6H3-N3O7            1
  1C 1 0  22  61  00  00  00  00  172  132    0--....
  2C 0 0  12  31  75  00  00  00  208  118    0---...
  3C 1 0  21  42  00  00  00  00  244  132    0--....
  4C 0 0  32  51  85  00  00  00  244  160    0---...
  5C 0 0  41  62 165  00  00  00  208  174    0---...
  6C 0 0  11  52  95  00  00  00  172  160    0---...
  7N 0 0  25 106 116  00  00  00  208   90    0---...
  8N 0 0  45 126 136  00  00  00  280  174    0---...
  9N 0 0  65 146 156  00  00  00  136  174    0---...
 10O 0 0  76  00  00  00  00  00  175   75    0-.....
 11O 0 0  76  00  00  00  00  00  241   75    0-.....
 12O 0 0  86  00  00  00  00  00  314  160    0-.....
 13O 0 0  86  00  00  00  00  00  283  202    0-.....
 14O 0 0  96  00  00  00  00  00  133  202    0-.....
 15O 0 0  96  00  00  00  00  00  102  160    0-.....
 16O 1 0  55  00  00  00  00  00  208  202    0-.....
52      18  C6H3-N3O9            1
  1C 0 0  22  61 175  00  00  00  172  132    0---...
  2C 0 0  12  31  75  00  00  00  208  118    0---...
  3C 0 0  21  42 185  00  00  00  244  132    0---...
  4C 0 0  32  51  85  00  00  00  244  160    0---...
  5C 0 0  41  62 165  00  00  00  208  174    0---...
  6C 0 0  11  52  95  00  00  00  172  160    0---...
  7N 0 0  25 106 116  00  00  00  208   90    0---...
  8N 0 0  45 126 136  00  00  00  280  174    0---...
  9N 0 0  65 146 156  00  00  00  136  174    0---...
 10O 0 0  76  00  00  00  00  00  175   75    0-.....
 11O 0 0  76  00  00  00  00  00  241   75    0-.....
 12O 0 0  86  00  00  00  00  00  314  160    0-.....
 13O 0 0  86  00  00  00  00  00  283  202    0-.....
 14O 0 0  96  00  00  00  00  00  133  202    0-.....
 15O 0 0  96  00  00  00  00  00  102  160    0-.....
 16O 1 0  55  00  00  00  00  00  208  202    0-.....
 17O 1 0  15  00  00  00  00  00  136  118    0-.....
 18O 1 0  35  00  00  00  00  00  280  118    0-.....
53      19  C6H3-N5O8            1
  1C 1 0  22  61  00  00  00  00  172  132    0--....
  2C 0 0  12  31  75  00  00  00  208  118    0---...
  3C 0 0  21  42 175  00  00  00  244  132    0---...
  4C 0 0  32  51  85  00  00  00  244  160    0---...
  5C 0 0  41  62 165  00  00  00  208  174    0---...
  6C 0 0  11  52  95  00  00  00  172  160    0---...
  7N 0 0  25 106 116  00  00  00  208   90    0---...
  8N 0 0  45 126 136  00  00  00  280  174    0---...
  9N 0 0  65 146 156  00  00  00  136  174    0---...
 10O 0 0  76  00  00  00  00  00  175   75    0-.....
 11O 0 0  76  00  00  00  00  00  241   75    0-.....
 12O 0 0  86  00  00  00  00  00  314  160    0-.....
 13O 0 0  86  00  00  00  00  00  283  202    0-.....
 14O 0 0  96  00  00  00  00  00  133  202    0-.....
 15O 0 0  96  00  00  00  00  00  102  160    0-.....
 16N 0 0  55 186 196  00  00  00  208  202    0---...
 17N 2 0  35  00  00  00  00  00  280  118    0-.....
 18O 0 0 166  00  00  00  00  00  241  217    0-.....
 19O 0 0 166  00  00  00  00  00  175  217    0-.....
54      14  C6H4-N2O6            1
  1C 1 0  22  61  00  00  00  00  172  132    0--....
  2C 0 0  12  31  75  00  00  00  208  118    0---...
  3C 0 0  21  42 135  00  00  00  244  132    0---...
  4C 1 0  32  51  00  00  00  00  244  160    0--....
  5C 0 0  41  62 145  00  00  00  208  174    0---...
  6C 0 0  11  52  85  00  00  00  172  160    0---...
  7N 0 0  25  96 106  00  00  00  208   90    0---...
  8N 0 0  65 116 126  00  00  00  136  174    0---...
  9O 0 0  76  00  00  00  00  00  175   75    0-.....
 10O 0 0  76  00  00  00  00  00  241   75    0-.....
 11O 0 0  86  00  00  00  00  00  133  202    0-.....
 12O 0 0  86  00  00  00  00  00  102  160    0-.....
 13O 1 0  35  00  00  00  00  00  280  118    0-.....
 14O 1 0  55  00  00  00  00  00  208  202    0-.....
55      14  C6H4-N2O6            1
  1C 1 0  22  61  00  00  00  00  172  132    0--....
  2C 1 0  12  31  00  00  00  00  208  118    0--....
  3C 0 0  21  42 105  00  00  00  244  132    0---...
  4C 0 0  32  51 125  00  00  00  244  160    0---...
  5C 0 0  41  62 115  00  00  00  208  174    0---...
  6C 0 0  11  52  75  00  00  00  172  160    0---...
  7N 0 0  65  86  96  00  00  00  136  174    0---...
  8O 0 0  76  00  00  00  00  00  133  202    0-.....
  9O 0 0  76  00  00  00  00  00  102  160    0-.....
 10O 1 0  35  00  00  00  00  00  280  118    0-.....
 11O 1 0  55  00  00  00  00  00  208  202    0-.....
 12N 0 0  45 136 146  00  00  00  280  174    0---...
 13O 0 0 126  00  00  00  00  00  314  160    0-.....
 14O 0 0 126  00  00  00  00  00  283  202    0-.....
56      16  C6H4-N4O6            1
  1C 1 0  22  61  00  00  00  00  172  132    0--....
  2C 0 0  12  31 135  00  00  00  208  118    0---...
  3C 1 0  21  42  00  00  00  00  244  132    0--....
  4C 0 0  32  51 105  00  00  00  244  160    0---...
  5C 0 0  41  62 145  00  00  00  208  174    0---...
  6C 0 0  11  52  75  00  00  00  172  160    0---...
  7N 0 0  65  86  96  00  00  00  136  174    0---...
  8O 0 0  76  00  00  00  00  00  133  202    0-.....
  9O 0 0  76  00  00  00  00  00  102  160    0-.....
 10N 0 0  45 116 126  00  00  00  280  174    0---...
 11O 0 0 106  00  00  00  00  00  314  160    0-.....
 12O 0 0 106  00  00  00  00  00  283  202    0-.....
 13N 0 0  25 156 166  00  00  00  208   90    0---...
 14N 2 0  55  00  00  00  00  00  208  202    0-.....
 15O 0 0 136  00  00  00  00  00  175   75    0-.....
 16O 0 0 136  00  00  00  00  00  241   75    0-.....
57      17  C6H4-N4O7            1
  1C 0 0  22  61 175  00  00  00  172  132    0---...
  2C 0 0  12  31 135  00  00  00  208  118    0---...
  3C 1 0  21  42  00  00  00  00  244  132    0--....
  4C 0 0  32  51 105  00  00  00  244  160    0---...
  5C 0 0  41  62 145  00  00  00  208  174    0---...
  6C 0 0  11  52  75  00  00  00  172  160    0---...
  7N 0 0  65  86  96  00  00  00  136  174    0---...
  8O 0 0  76  00  00  00  00  00  133  202    0-.....
  9O 0 0  76  00  00  00  00  00  102  160    0-.....
 10N 0 0  45 116 126  00  00  00  280  174    0---...
 11O 0 0 106  00  00  00  00  00  314  160    0-.....
 12O 0 0 106  00  00  00  00  00  283  202    0-.....
 13N 0 0  25 156 166  00  00  00  208   90    0---...
 14N 2 0  55  00  00  00  00  00  208  202    0-.....
 15O 0 0 136  00  00  00  00  00  175   75    0-.....
 16O 0 0 136  00  00  00  00  00  241   75    0-.....
 17O 1 0  15  00  00  00  00  00  136  118    0-.....
58      17  C6H5-N5O6            1
  1C 0 0  22  61 175  00  00  00  172  132    0---...
  2C 0 0  12  31 135  00  00  00  208  118    0---...
  3C 1 0  21  42  00  00  00  00  244  132    0--....
  4C 0 0  32  51 105  00  00  00  244  160    0---...
  5C 0 0  41  62 145  00  00  00  208  174    0---...
  6C 0 0  11  52  75  00  00  00  172  160    0---...
  7N 0 0  65  86  96  00  00  00  136  174    0---...
  8O 0 0  76  00  00  00  00  00  133  202    0-.....
  9O 0 0  76  00  00  00  00  00  102  160    0-.....
 10N 0 0  45 116 126  00  00  00  280  174    0---...
 11O 0 0 106  00  00  00  00  00  314  160    0-.....
 12O 0 0 106  00  00  00  00  00  283  202    0-.....
 13N 0 0  25 156 166  00  00  00  208   90    0---...
 14N 2 0  55  00  00  00  00  00  208  202    0-.....
 15O 0 0 136  00  00  00  00  00  175   75    0-.....
 16O 0 0 136  00  00  00  00  00  241   75    0-.....
 17N 2 0  15  00  00  00  00  00  136  118    0-.....
59      18  C6H6-N6O6            1
  1C 0 0  22  61 175  00  00  00  172  132    0---...
  2C 0 0  12  31 135  00  00  00  208  118    0---...
  3C 0 0  21  42 185  00  00  00  244  132    0---...
  4C 0 0  32  51 105  00  00  00  244  160    0---...
  5C 0 0  41  62 145  00  00  00  208  174    0---...
  6C 0 0  11  52  75  00  00  00  172  160    0---...
  7N 0 0  65  86  96  00  00  00  136  174    0---...
  8O 0 0  76  00  00  00  00  00  133  202    0-.....
  9O 0 0  76  00  00  00  00  00  102  160    0-.....
 10N 0 0  45 116 126  00  00  00  280  174    0---...
 11O 0 0 106  00  00  00  00  00  314  160    0-.....
 12O 0 0 106  00  00  00  00  00  283  202    0-.....
 13N 0 0  25 156 166  00  00  00  208   90    0---...
 14N 2 0  55  00  00  00  00  00  208  202    0-.....
 15O 0 0 136  00  00  00  00  00  175   75    0-.....
 16O 0 0 136  00  00  00  00  00  241   75    0-.....
 17N 2 0  15  00  00  00  00  00  136  118    0-.....
 18N 2 0  35  00  00  00  00  00  280  118    0-.....
60      25  C6H6-N6O13           1
  1N 0 0  25 166 176  00  00  00   92  142    0---...
  2C 0 0  15  35  45  55  00  00  134  142    0----..
  3N 0 0  25 146 156  00  00  00  134  114    0---...
  4N 0 0  25 186 196  00  00  00  134  170    0---...
  5C 2 0  25  65  00  00  00  00  176  142    0--....
  6C 0 0  55  76  85  00  00  00  212  128    0---...
  7O 0 0  66  00  00  00  00  00  212  100    0-.....
  8C 2 0  65  95  00  00  00  00  254  128    0--....
  9C 2 0  85 105  00  00  00  00  290  142    0--....
 10C 0 0  95 115 125 135  00  00  332  142    0----..
 11N 0 0 105 246 256  00  00  00  332  114    0---...
 12N 0 0 105 226 236  00  00  00  374  142    0---...
 13N 0 0 105 206 216  00  00  00  332  170    0---...
 14O 0 0  36  00  00  00  00  00  101   99    0-.....
 15O 0 0  36  00  00  00  00  00  167   99    0-.....
 16O 0 0  16  00  00  00  00  00   71  166    0-.....
 17O 0 0  16  00  00  00  00  00   71  118    0-.....
 18O 0 0  46  00  00  00  00  00  167  185    0-.....
 19O 0 0  46  00  00  00  00  00  101  185    0-.....
 20O 0 0 136  00  00  00  00  00  365  185    0-.....
 21O 0 0 136  00  00  00  00  00  299  185    0-.....
 22O 0 0 126  00  00  00  00  00  395  118    0-.....
 23O 0 0 126  00  00  00  00  00  395  166    0-.....
 24O 0 0 116  00  00  00  00  00  299   99    0-.....
 25O 0 0 116  00  00  00  00  00  365   99    0-.....
61      30  C6H6-N8O16           1
  1N 0 0  25 196 206  00  00  00  104  141    0---...
  2C 0 0  15  35  45  55  00  00  146  141    0----..
  3N 0 0  25 176 186  00  00  00  146  113    0---...
  4N 0 0  25 216 226  00  00  00  146  169    0---...
  5C 2 0  25  65  00  00  00  00  182  127    0--....
  6O 0 0  55  75  00  00  00  00  218  141    0--....
  7C 0 0  65  86  95  00  00  00  260  141    0---...
  8O 0 0  76  00  00  00  00  00  260  169    0-.....
  9N 0 0  75 105 115  00  00  00  281  117    0---...
 10N 0 0  95 236 246  00  00  00  260   93    0---...
 11C 2 0  95 125  00  00  00  00  323  117    0--....
 12C 2 0 115 135  00  00  00  00  359  103    0--....
 13C 0 0 125 145 155 165  00  00  380  127    0----..
 14N 0 0 135 256 266  00  00  00  416  113    0---...
 15N 0 0 135 296 306  00  00  00  344  141    0---...
 16N 0 0 135 276 286  00  00  00  401  151    0---...
 17O 0 0  36  00  00  00  00  00  113   98    0-.....
 18O 0 0  36  00  00  00  00  00  179   98    0-.....
 19O 0 0  16  00  00  00  00  00   83  165    0-.....
 20O 0 0  16  00  00  00  00  00   83  117    0-.....
 21O 0 0  46  00  00  00  00  00  179  184    0-.....
 22O 0 0  46  00  00  00  00  00  113  184    0-.....
 23O 0 0 106  00  00  00  00  00  221   93    0-.....
 24O 0 0 106  00  00  00  00  00  277   67    0-.....
 25O 0 0 146  00  00  00  00  00  419   85    0-.....
 26O 0 0 146  00  00  00  00  00  450  127    0-.....
 27O 0 0 166  00  00  00  00  00  440  151    0-.....
 28O 0 0 166  00  00  00  00  00  384  177    0-.....
 29O 0 0 156  00  00  00  00  00  341  169    0-.....
 30O 0 0 156  00  00  00  00  00  310  127    0-.....
62      30  C6H6-N8O16           1
  1N 0 0  25 196 206  00  00  00   96  128    0---...
  2C 0 0  15  35  45  55  00  00  138  128    0----..
  3N 0 0  25 176 186  00  00  00  138  100    0---...
  4N 0 0  25 216 226  00  00  00  138  156    0---...
  5C 2 0  25  65  00  00  00  00  180  128    0--....
  6O 0 0  55  75  00  00  00  00  201  104    0--....
  7C 0 0  65  86  95  00  00  00  222  128    0---...
  8O 0 0  76  00  00  00  00  00  222  156    0-.....
  9C 2 0  75 105  00  00  00  00  258  114    0--....
 10N 0 0  95 115 125  00  00  00  294  128    0---...
 11N 0 0 105 236 246  00  00  00  294  100    0---...
 12C 2 0 105 135  00  00  00  00  336  128    0--....
 13C 0 0 125 145 155 165  00  00  372  142    0----..
 14N 0 0 135 256 266  00  00  00  393  118    0---...
 15N 0 0 135 276 286  00  00  00  408  156    0---...
 16N 0 0 135 296 306  00  00  00  351  166    0---...
 17O 0 0  36  00  00  00  00  00  105   85    0-.....
 18O 0 0  36  00  00  00  00  00  171   85    0-.....
 19O 0 0  16  00  00  00  00  00   75  152    0-.....
 20O 0 0  16  00  00  00  00  00   75  104    0-.....
 21O 0 0  46  00  00  00  00  00  171  171    0-.....
 22O 0 0  46  00  00  00  00  00  105  171    0-.....
 23O 0 0 116  00  00  00  00  00  261   85    0-.....
 24O 0 0 116  00  00  00  00  00  327   85    0-.....
 25O 0 0 146  00  00  00  00  00  376   92    0-.....
 26O 0 0 146  00  00  00  00  00  432  118    0-.....
 27O 0 0 156  00  00  00  00  00  442  142    0-.....
 28O 0 0 156  00  00  00  00  00  411  184    0-.....
 29O 0 0 166  00  00  00  00  00  368  192    0-.....
 30O 0 0 166  00  00  00  00  00  312  166    0-.....
63      28  C6H8-F2N8O12         1
  1N 0 0 156 166 275  00  00  00   93   46    0---...
  2C 2 0  45 275  00  00  00  00  135   74    0--....
  3N 0 0 176 186 275  00  00  00   51   74    0---...
  4N 0 0  25  55 145  00  00  00  171   60    0---...
  5C 2 0  45  65  00  00  00  00  207   74    0--....
  6C 2 0  55  75  00  00  00  00  228   98    0--....
  7N 0 0  65  85  95  00  00  00  228  126    0---...
  8N 0 0  75 216 226  00  00  00  270  126    0---...
  9C 2 0  75 105  00  00  00  00  228  154    0--....
 10C 0 0  95 115 125 135  00  00  192  168    0----..
 11N 0 0 105 236 246  00  00  00  171  144    0---...
 12F 0 0 105  00  00  00  00  00  213  192    0-.....
 13N 0 0 105 256 266  00  00  00  156  182    0---...
 14N 0 0  45 196 206  00  00  00  171   32    0---...
 15O 0 0  16  00  00  00  00  00   60   31    0-.....
 16O 0 0  16  00  00  00  00  00  126   31    0-.....
 17O 0 0  36  00  00  00  00  00   30   98    0-.....
 18O 0 0  36  00  00  00  00  00   30   50    0-.....
 19O 0 0 146  00  00  00  00  00  138   17    0-.....
 20O 0 0 146  00  00  00  00  00  204   17    0-.....
 21O 0 0  86  00  00  00  00  00  291  102    0-.....
 22O 0 0  86  00  00  00  00  00  291  150    0-.....
 23O 0 0 116  00  00  00  00  00  132  144    0-.....
 24O 0 0 116  00  00  00  00  00  188  118    0-.....
 25O 0 0 136  00  00  00  00  00  153  210    0-.....
 26O 0 0 136  00  00  00  00  00  122  168    0-.....
 27C 0 0  25  15  35 285  00  00   93   74    0----..
 28F 0 0 275  00  00  00  00  00   93  102    0-.....
64      21  C6H9-N5O10           1
  1C 3 0  25  00  00  00  00  00  114  129    0-.....
  2N 0 0  15  35  45  00  00  00  150  115    0---...
  3N 0 0  25 146 156  00  00  00  150   87    0---...
  4C 2 0  25  55  00  00  00  00  186  129    0--....
  5C 2 0  45  65  00  00  00  00  222  115    0--....
  6C 0 0  55  76  85  00  00  00  258  129    0---...
  7O 0 0  66  00  00  00  00  00  258  157    0-.....
  8O 0 0  65  95  00  00  00  00  294  115    0--....
  9C 2 0  85 105  00  00  00  00  330  129    0--....
 10C 0 0  95 115 125 135  00  00  351  105    0----..
 11N 0 0 105 206 216  00  00  00  330   81    0---...
 12N 0 0 105 186 196  00  00  00  387   91    0---...
 13N 0 0 105 166 176  00  00  00  372  129    0---...
 14O 0 0  36  00  00  00  00  00  117   72    0-.....
 15O 0 0  36  00  00  00  00  00  183   72    0-.....
 16O 0 0 136  00  00  00  00  00  411  129    0-.....
 17O 0 0 136  00  00  00  00  00  355  155    0-.....
 18O 0 0 126  00  00  00  00  00  390   63    0-.....
 19O 0 0 126  00  00  00  00  00  421  105    0-.....
 20O 0 0 116  00  00  00  00  00  291   81    0-.....
 21O 0 0 116  00  00  00  00  00  347   55    0-.....
65      25  C6H9-N7O12           1
  1N 0 0  25  35 155  00  00  00  101  128    0---...
  2N 0 0  15 246 256  00  00  00  101  156    0---...
  3C 2 0  15  45  00  00  00  00  143  128    0--....
  4C 2 0  35  55  00  00  00  00  179  114    0--....
  5N 0 0  45  65  75  00  00  00  215  128    0---...
  6N 0 0  55 226 236  00  00  00  215  156    0---...
  7C 0 0  55  86  95  00  00  00  257  128    0---...
  8O 0 0  76  00  00  00  00  00  257  100    0-.....
  9O 0 0  75 105  00  00  00  00  299  128    0--....
 10C 2 0  95 115  00  00  00  00  320  152    0--....
 11C 0 0 105 125 135 145  00  00  362  152    0----..
 12N 0 0 115 166 176  00  00  00  362  124    0---...
 13N 0 0 115 186 196  00  00  00  404  152    0---...
 14N 0 0 115 206 216  00  00  00  362  180    0---...
 15C 3 0  15  00  00  00  00  00   59  128    0-.....
 16O 0 0 126  00  00  00  00  00  329  109    0-.....
 17O 0 0 126  00  00  00  00  00  395  109    0-.....
 18O 0 0 136  00  00  00  00  00  425  128    0-.....
 19O 0 0 136  00  00  00  00  00  425  176    0-.....
 20O 0 0 146  00  00  00  00  00  395  195    0-.....
 21O 0 0 146  00  00  00  00  00  329  195    0-.....
 22O 0 0  66  00  00  00  00  00  248  171    0-.....
 23O 0 0  66  00  00  00  00  00  182  171    0-.....
 24O 0 0  26  00  00  00  00  00  134  171    0-.....
 25O 0 0  26  00  00  00  00  00   68  171    0-.....
66      25  C6H9-N7O12           1
  1C 2 0  25 165  00  00  00  00  220  110    0--....
  2N 0 0  35  45  15  00  00  00  256  124    0---...
  3N 0 0  25 146 156  00  00  00  256  152    0---...
  4C 2 0  25  55  00  00  00  00  292  110    0--....
  5C 2 0  45  65  00  00  00  00  328  124    0--....
  6C 0 0  55  75  85  95  00  00  370  124    0----..
  7N 0 0  65 106 116  00  00  00  370   96    0---...
  8N 0 0  65 126 136  00  00  00  370  152    0---...
  9C 3 0  65  00  00  00  00  00  412  124    0-.....
 10O 0 0  76  00  00  00  00  00  337   81    0-.....
 11O 0 0  76  00  00  00  00  00  403   81    0-.....
 12O 0 0  86  00  00  00  00  00  403  167    0-.....
 13O 0 0  86  00  00  00  00  00  337  167    0-.....
 14O 0 0  36  00  00  00  00  00  289  167    0-.....
 15O 0 0  36  00  00  00  00  00  223  167    0-.....
 16C 0 0  15 175 185 195  00  00  178  110    0----..
 17N 0 0 165 246 256  00  00  00  199   86    0---...
 18N 0 0 165 226 236  00  00  00  142   96    0---...
 19N 0 0 165 206 216  00  00  00  157  134    0---...
 20O 0 0 196  00  00  00  00  00  174  160    0-.....
 21O 0 0 196  00  00  00  00  00  118  134    0-.....
 22O 0 0 186  00  00  00  00  00  108  110    0-.....
 23O 0 0 186  00  00  00  00  00  139   68    0-.....
 24O 0 0 176  00  00  00  00  00  182   60    0-.....
 25O 0 0 176  00  00  00  00  00  238   86    0-.....
67      18  C6H10-N4O8           1
  1C 3 0  25  00  00  00  00  00  129  118    0-.....
  2C 2 0  15  35  00  00  00  00  129   90    0--....
  3C 0 0  25  45  55  65  00  00  171   90    0----..
  4N 0 0  35 136 146  00  00  00  171   62    0---...
  5N 0 0  35 176 186  00  00  00  171  118    0---...
  6C 0 0  35  75  85  95  00  00  213   90    0----..
  7N 0 0  65 116 126  00  00  00  234   66    0---...
  8N 0 0  65 156 166  00  00  00  234  114    0---...
  9C 2 0  65 105  00  00  00  00  257   82    0--....
 10C 3 0  95  00  00  00  00  00  297   90    0-.....
 11O 0 0  76  00  00  00  00  00  217   40    0-.....
 12O 0 0  76  00  00  00  00  00  273   66    0-.....
 13O 0 0  46  00  00  00  00  00  138   47    0-.....
 14O 0 0  46  00  00  00  00  00  204   47    0-.....
 15O 0 0  86  00  00  00  00  00  273  114    0-.....
 16O 0 0  86  00  00  00  00  00  217  140    0-.....
 17O 0 0  56  00  00  00  00  00  204  133    0-.....
 18O 0 0  56  00  00  00  00  00  138  133    0-.....
68      22  C6H10-N6O10          1
  1C 3 0  25  00  00  00  00  00   91  111    0-.....
  2C 0 0  15  35  55 175  00  00  133  111    0----..
  3C 2 0  25  45  00  00  00  00  169   97    0--....
  4N 0 0  35  65 185  00  00  00  205  111    0---...
  5N 0 0  25 156 166  00  00  00  133   83    0---...
  6C 2 0  45  75  00  00  00  00  247  111    0--....
  7C 0 0  65  85  95 105  00  00  283   97    0----..
  8N 0 0  75 116 126  00  00  00  283   69    0---...
  9N 0 0  75 136 146  00  00  00  304  121    0---...
 10C 3 0  75  00  00  00  00  00  319   83    0-.....
 11O 0 0  86  00  00  00  00  00  250   54    0-.....
 12O 0 0  86  00  00  00  00  00  316   54    0-.....
 13O 0 0  96  00  00  00  00  00  343  121    0-.....
 14O 0 0  96  00  00  00  00  00  287  147    0-.....
 15O 0 0  56  00  00  00  00  00  100   68    0-.....
 16O 0 0  56  00  00  00  00  00  166   68    0-.....
 17N 0 0  25 196 206  00  00  00  112  135    0---...
 18N 0 0  45 216 226  00  00  00  205  139    0---...
 19O 0 0 176  00  00  00  00  00  129  161    0-.....
 20O 0 0 176  00  00  00  00  00   73  135    0-.....
 21O 0 0 186  00  00  00  00  00  238  154    0-.....
 22O 0 0 186  00  00  00  00  00  172  154    0-.....
69      22  C6H10-N8O8           1
  1C 2 0  21 101  00  00  00  00   85  147    0--....
  2N 0 0  11  31 115  00  00  00  121  133    0---...
  3C 1 0  21  41  81  00  00  00  157  147    0---...
  4N 0 0  31  51 125  00  00  00  193  133    0---...
  5C 2 0  41  61  00  00  00  00  229  147    0--....
  6C 2 0  51  71  00  00  00  00  229  175    0--....
  7N 0 0  61  81 135  00  00  00  193  189    0---...
  8C 1 0  71  31  91  00  00  00  157  175    0---...
  9N 0 0  81 101 145  00  00  00  121  189    0---...
 10C 2 0  91  11  00  00  00  00   85  175    0--....
 11N 0 0  25 156 166  00  00  00  100  109    0---...
 12N 0 0  45 176 186  00  00  00  214  109    0---...
 13N 0 0  75 196 206  00  00  00  214  213    0---...
 14N 0 0  95 216 226  00  00  00  100  213    0---...
 15O 0 0 116  00  00  00  00  00   61  109    0-.....
 16O 0 0 116  00  00  00  00  00  117   83    0-.....
 17O 0 0 126  00  00  00  00  00  197   83    0-.....
 18O 0 0 126  00  00  00  00  00  253  109    0-.....
 19O 0 0 136  00  00  00  00  00  253  213    0-.....
 20O 0 0 136  00  00  00  00  00  197  239    0-.....
 21O 0 0 146  00  00  00  00  00  117  239    0-.....
 22O 0 0 146  00  00  00  00  00   61  213    0-.....
70      22  C6H14-N8O8           1
  1N 1 0  25  35  00  00  00  00   55  139    0--....
  2N 0 0  15 156 166  00  00  00   55  167    0---...
  3C 2 0  15  45  00  00  00  00   97  139    0--....
  4C 2 0  35  55  00  00  00  00  118  115    0--....
  5N 0 0  45  65  75  00  00  00  139  139    0---...
  6N 0 0  55 176 186  00  00  00  139  167    0---...
  7C 2 0  55  85  00  00  00  00  175  125    0--....
  8C 2 0  75  95  00  00  00  00  196  149    0--....
  9N 0 0  85 105 145  00  00  00  217  125    0---...
 10C 2 0  95 115  00  00  00  00  238  149    0--....
 11C 2 0 105 125  00  00  00  00  259  125    0--....
 12N 1 0 115 135  00  00  00  00  295  111    0--....
 13N 0 0 125 216 226  00  00  00  331  125    0---...
 14N 0 0  95 196 206  00  00  00  217   97    0---...
 15O 0 0  26  00  00  00  00  00   88  182    0-.....
 16O 0 0  26  00  00  00  00  00   22  182    0-.....
 17O 0 0  66  00  00  00  00  00  172  182    0-.....
 18O 0 0  66  00  00  00  00  00  106  182    0-.....
 19O 0 0 146  00  00  00  00  00  184   82    0-.....
 20O 0 0 146  00  00  00  00  00  250   82    0-.....
 21O 0 0 136  00  00  00  00  00  365  111    0-.....
 22O 0 0 136  00  00  00  00  00  334  153    0-.....
71      17  C7H2-N4O6            1
  1C 0 0  22  61  75  00  00  00  185  128    0---...
  2C 0 0  12  31 165  00  00  00  221  114    0---...
  3C 0 0  21  85  42  00  00  00  257  128    0---...
  4C 1 0  51  32  00  00  00  00  257  156    0--....
  5C 0 0  41  62  95  00  00  00  221  170    0---...
  6C 1 0  52  11  00  00  00  00  185  156    0--....
  7N 0 0  15 106 116  00  00  00  149  114    0---...
  8N 0 0  35 126 136  00  00  00  293  114    0---...
  9N 0 0  55 146 156  00  00  00  221  198    0---...
 10O 0 0  76  00  00  00  00  00  115  128    0-.....
 11O 0 0  76  00  00  00  00  00  146   86    0-.....
 12O 0 0  86  00  00  00  00  00  296   86    0-.....
 13O 0 0  86  00  00  00  00  00  327  128    0-.....
 14O 0 0  96  00  00  00  00  00  254  213    0-.....
 15O 0 0  96  00  00  00  00  00  188  213    0-.....
 16C 0 0  25 177  00  00  00  00  221   86    0--....
 17N 0 0 167  00  00  00  00  00  242   62    0-.....
72      17  C7H3-N3O7            1
  1C 0 0  22  61  75  00  00  00  185  128    0---...
  2C 0 0  12  31 165  00  00  00  221  114    0---...
  3C 0 0  21  85  42  00  00  00  257  128    0---...
  4C 1 0  32  51  00  00  00  00  257  156    0--....
  5C 0 0  41  62  95  00  00  00  221  170    0---...
  6C 1 0  11  52  00  00  00  00  185  156    0--....
  7N 0 0  15 106 116  00  00  00  149  114    0---...
  8N 0 0  35 126 136  00  00  00  293  114    0---...
  9N 0 0  55 146 156  00  00  00  221  198    0---...
 10O 0 0  76  00  00  00  00  00  115  128    0-.....
 11O 0 0  76  00  00  00  00  00  146   86    0-.....
 12O 0 0  86  00  00  00  00  00  296   86    0-.....
 13O 0 0  86  00  00  00  00  00  327  128    0-.....
 14O 0 0  96  00  00  00  00  00  254  213    0-.....
 15O 0 0  96  00  00  00  00  00  188  213    0-.....
 16C 1 0  25 176  00  00  00  00  221   86    0--....
 17O 0 0 166  00  00  00  00  00  242   62    0-.....
73      18  C7H3-N3O8            1
  1C 0 0  22  61  75  00  00  00  185  128    0---...
  2C 0 0  12  31 165  00  00  00  221  114    0---...
  3C 0 0  21  85  42  00  00  00  257  128    0---...
  4C 1 0  32  51  00  00  00  00  257  156    0--....
  5C 0 0  41  62  95  00  00  00  221  170    0---...
  6C 1 0  11  52  00  00  00  00  185  156    0--....
  7N 0 0  15 106 116  00  00  00  149  114    0---...
  8N 0 0  35 126 136  00  00  00  293  114    0---...
  9N 0 0  55 146 156  00  00  00  221  198    0---...
 10O 0 0  76  00  00  00  00  00  115  128    0-.....
 11O 0 0  76  00  00  00  00  00  146   86    0-.....
 12O 0 0  86  00  00  00  00  00  296   86    0-.....
 13O 0 0  86  00  00  00  00  00  327  128    0-.....
 14O 0 0  96  00  00  00  00  00  254  213    0-.....
 15O 0 0  96  00  00  00  00  00  188  213    0-.....
 16C 0 0  25 176 185  00  00  00  221   86    0---...
 17O 0 0 166  00  00  00  00  00  242   62    0-.....
 18O 1 0 165  00  00  00  00  00  200   62    0-.....
74      18  C7H4-N4O7            1
  1C 0 0  22  61  75  00  00  00  185  128    0---...
  2C 0 0  12  31 165  00  00  00  221  114    0---...
  3C 0 0  21  85  42  00  00  00  257  128    0---...
  4C 1 0  32  51  00  00  00  00  257  156    0--....
  5C 0 0  41  62  95  00  00  00  221  170    0---...
  6C 1 0  11  52  00  00  00  00  185  156    0--....
  7N 0 0  15 106 116  00  00  00  149  114    0---...
  8N 0 0  35 126 136  00  00  00  293  114    0---...
  9N 0 0  55 146 156  00  00  00  221  198    0---...
 10O 0 0  76  00  00  00  00  00  115  128    0-.....
 11O 0 0  76  00  00  00  00  00  146   86    0-.....
 12O 0 0  86  00  00  00  00  00  296   86    0-.....
 13O 0 0  86  00  00  00  00  00  327  128    0-.....
 14O 0 0  96  00  00  00  00  00  254  213    0-.....
 15O 0 0  96  00  00  00  00  00  188  213    0-.....
 16C 1 0  25 176  00  00  00  00  221   86    0--....
 17N 0 0 166 185  00  00  00  00  221   58    0--....
 18O 1 0 175  00  00  00  00  00  257   44    0-.....
75      16  C7H5-N3O6            1
  1C 0 0  22  61  75  00  00  00  185  128    0---...
  2C 0 0  12  31 165  00  00  00  221  114    0---...
  3C 0 0  21  85  42  00  00  00  257  128    0---...
  4C 1 0  32  51  00  00  00  00  257  156    0--....
  5C 0 0  41  62  95  00  00  00  221  170    0---...
  6C 1 0  11  52  00  00  00  00  185  156    0--....
  7N 0 0  15 106 116  00  00  00  149  114    0---...
  8N 0 0  35 126 136  00  00  00  293  114    0---...
  9N 0 0  55 146 156  00  00  00  221  198    0---...
 10O 0 0  76  00  00  00  00  00  115  128    0-.....
 11O 0 0  76  00  00  00  00  00  146   86    0-.....
 12O 0 0  86  00  00  00  00  00  296   86    0-.....
 13O 0 0  86  00  00  00  00  00  327  128    0-.....
 14O 0 0  96  00  00  00  00  00  254  213    0-.....
 15O 0 0  96  00  00  00  00  00  188  213    0-.....
 16C 3 0  25  00  00  00  00  00  221   86    0-.....
76      17  C7H5-N3O7            1
  1C 0 0  22  61  75  00  00  00  185  128    0---...
  2C 0 0  12  31 165  00  00  00  221  114    0---...
  3C 0 0  21  85  42  00  00  00  257  128    0---...
  4C 0 0  32  51 175  00  00  00  257  156    0---...
  5C 0 0  41  62  95  00  00  00  221  170    0---...
  6C 1 0  11  52  00  00  00  00  185  156    0--....
  7N 0 0  15 106 116  00  00  00  149  114    0---...
  8N 0 0  35 126 136  00  00  00  293  114    0---...
  9N 0 0  55 146 156  00  00  00  221  198    0---...
 10O 0 0  76  00  00  00  00  00  115  128    0-.....
 11O 0 0  76  00  00  00  00  00  146   86    0-.....
 12O 0 0  86  00  00  00  00  00  296   86    0-.....
 13O 0 0  86  00  00  00  00  00  327  128    0-.....
 14O 0 0  96  00  00  00  00  00  254  213    0-.....
 15O 0 0  96  00  00  00  00  00  188  213    0-.....
 16C 3 0  25  00  00  00  00  00  221   86    0-.....
 17O 1 0  45  00  00  00  00  00  293  170    0-.....
77      17  C7H5-N3O7            1
  1C 0 0  22  61  75  00  00  00  175  118    0---...
  2C 1 0  12  31  00  00  00  00  211  104    0--....
  3C 0 0  21  42  85  00  00  00  247  118    0---...
  4C 0 0  32  51 105  00  00  00  247  146    0---...
  5C 0 0  41  62  95  00  00  00  211  160    0---...
  6C 1 0  52  11  00  00  00  00  175  146    0--....
  7N 0 0  15 126 136  00  00  00  139  104    0---...
  8N 0 0  35 146 156  00  00  00  283  104    0---...
  9N 0 0  55 166 176  00  00  00  211  188    0---...
 10O 0 0  45 115  00  00  00  00  283  160    0--....
 11C 3 0 105  00  00  00  00  00  325  160    0-.....
 12O 0 0  76  00  00  00  00  00  105  118    0-.....
 13O 0 0  76  00  00  00  00  00  136   76    0-.....
 14O 0 0  86  00  00  00  00  00  286   76    0-.....
 15O 0 0  86  00  00  00  00  00  317  118    0-.....
 16O 0 0  96  00  00  00  00  00  244  203    0-.....
 17O 0 0  96  00  00  00  00  00  178  203    0-.....
78      17  C7H5-N3O7            1
  1C 0 0  22  61  75  00  00  00  175  118    0---...
  2C 1 0  12  31  00  00  00  00  211  104    0--....
  3C 0 0  21  42  85  00  00  00  247  118    0---...
  4C 0 0  32  51 105  00  00  00  247  146    0---...
  5C 0 0  41  62  95  00  00  00  211  160    0---...
  6C 1 0  11  52  00  00  00  00  175  146    0--....
  7N 0 0  15 126 136  00  00  00  139  104    0---...
  8N 0 0  35 146 156  00  00  00  283  104    0---...
  9N 0 0  55 166 176  00  00  00  211  188    0---...
 10C 2 0  45 115  00  00  00  00  283  160    0--....
 11O 1 0 105  00  00  00  00  00  325  160    0-.....
 12O 0 0  76  00  00  00  00  00  105  118    0-.....
 13O 0 0  76  00  00  00  00  00  136   76    0-.....
 14O 0 0  86  00  00  00  00  00  286   76    0-.....
 15O 0 0  86  00  00  00  00  00  317  118    0-.....
 16O 0 0  96  00  00  00  00  00  244  203    0-.....
 17O 0 0  96  00  00  00  00  00  178  203    0-.....
79      20  C7H5-N5O8            1
  1C 0 0  22  61  75  00  00  00  175  118    0---...
  2C 1 0  12  31  00  00  00  00  211  104    0--....
  3C 0 0  21  42  85  00  00  00  247  118    0---...
  4C 0 0  32  51 105  00  00  00  247  146    0---...
  5C 0 0  41  62  95  00  00  00  211  160    0---...
  6C 1 0  11  52  00  00  00  00  175  146    0--....
  7N 0 0  15 126 136  00  00  00  139  104    0---...
  8N 0 0  35 146 156  00  00  00  283  104    0---...
  9N 0 0  55 166 176  00  00  00  211  188    0---...
 10N 0 0  45 115 185  00  00  00  283  160    0---...
 11C 3 0 105  00  00  00  00  00  325  160    0-.....
 12O 0 0  76  00  00  00  00  00  105  118    0-.....
 13O 0 0  76  00  00  00  00  00  136   76    0-.....
 14O 0 0  86  00  00  00  00  00  286   76    0-.....
 15O 0 0  86  00  00  00  00  00  317  118    0-.....
 16O 0 0  96  00  00  00  00  00  244  203    0-.....
 17O 0 0  96  00  00  00  00  00  178  203    0-.....
 18N 0 0 105 196 206  00  00  00  304  184    0---...
 19O 0 0 186  00  00  00  00  00  343  184    0-.....
 20O 0 0 186  00  00  00  00  00  287  210    0-.....
80      16  C4H10-N6O6           1
  1N 0 0  25 116 126  00  00  00   68  149    0---...
  2N 1 0  15  35  00  00  00  00   68  121    0--....
  3C 2 0  25  45  00  00  00  00  110  121    0--....
  4C 2 0  35  55  00  00  00  00  146  107    0--....
  5N 0 0  45  65  75  00  00  00  182  121    0---...
  6N 0 0  55 136 146  00  00  00  182  149    0---...
  7C 2 0  55  85  00  00  00  00  218  107    0--....
  8C 2 0  75  95  00  00  00  00  254  121    0--....
  9N 1 0  85 105  00  00  00  00  290  107    0--....
 10N 0 0  95 156 166  00  00  00  332  107    0---...
 11O 0 0  16  00  00  00  00  00  101  164    0-.....
 12O 0 0  16  00  00  00  00  00   35  164    0-.....
 13O 0 0  66  00  00  00  00  00  215  164    0-.....
 14O 0 0  66  00  00  00  00  00  149  164    0-.....
 15O 0 0 106  00  00  00  00  00  353   83    0-.....
 16O 0 0 106  00  00  00  00  00  353  131    0-.....
81      17  C7H6-N4O6            1
  1C 0 0  22  61  75  00  00  00  102  134    0---...
  2C 0 0  12  31 105  00  00  00  138  120    0---...
  3C 0 0  21  42  85  00  00  00  174  134    0---...
[...]
  9C 0 0  82 101 215  00  00  00   82  140    0---...
 10C 1 0  91 112  00  00  00  00   82  168    0--....
 11C 0 0 102 121 235  00  00  00  118  182    0---...
 12C 1 0 111 132  00  00  00  00  154  168    0--....
 13C 0 0  81 122 225  00  00  00  154  140    0---...
 14N 1 0  55 155  00  00  00  00  283  102    0--....
 15C 0 0 145 162 201  00  00  00  283  130    0---...
 16C 0 0 152 171 265  00  00  00  319  116    0---...
 17C 1 0 161 182  00  00  00  00  361  116    0--....
 18C 0 0 172 191 285  00  00  00  382  140    0---...
 19C 1 0 181 202  00  00  00  00  346  154    0--....
 20C 0 0 151 192 275  00  00  00  304  154    0---...
 21N 0 0  95 336 346  00  00  00   61  116    0---...
 22N 0 0 135 356 366  00  00  00  190  154    0---...
 23N 0 0 115 376 386  00  00  00  118  210    0---...
 24N 0 0  25 296 306  00  00  00  139   46    0---...
 25N 0 0  65 316 326  00  00  00  283   46    0---...
 26N 0 0 165 396 406  00  00  00  340   92    0---...
 27N 0 0 205 436 446  00  00  00  304  182    0---...
 28N 0 0 185 416 426  00  00  00  424  140    0---...
 29O 0 0 246  00  00  00  00  00  105   60    0-.....
 30O 0 0 246  00  00  00  00  00  136   18    0-.....
 31O 0 0 256  00  00  00  00  00  286   18    0-.....
 32O 0 0 256  00  00  00  00  00  317   60    0-.....
 33O 0 0 216  00  00  00  00  00   22  116    0-.....
 34O 0 0 216  00  00  00  00  00   78   90    0-.....
 35O 0 0 226  00  00  00  00  00  224  140    0-.....
 36O 0 0 226  00  00  00  00  00  193  182    0-.....
 37O 0 0 236  00  00  00  00  00  151  225    0-.....
 38O 0 0 236  00  00  00  00  00   85  225    0-.....
 39O 0 0 266  00  00  00  00  00  339   66    0-.....
 40O 0 0 266  00  00  00  00  00  379   92    0-.....
 41O 0 0 286  00  00  00  00  00  445  116    0-.....
 42O 0 0 286  00  00  00  00  00  445  164    0-.....
 43O 0 0 276  00  00  00  00  00  337  197    0-.....
 44O 0 0 276  00  00  00  00  00  271  197    0-.....
155     45  C18H5-N9O18          1
  1C 1 0  22  61  00  00  00  00   97   76    0--....
  2C 0 0  12  31 195  00  00  00  133   62    0---...
  3C 1 0  21  42  00  00  00  00  169   76    0--....
  4C 0 0  32  51 215  00  00  00  169  104    0---...
  5C 0 0  41  62  75  00  00  00  133  118    0---...
  6C 0 0  11  52 205  00  00  00   97  104    0---...
  7C 0 0  55  82 121  00  00  00  133  146    0---...
  8C 0 0  72  91 235  00  00  00   97  160    0---...
  9C 1 0  81 102  00  00  00  00   97  188    0--....
 10C 0 0  92 111 245  00  00  00  133  202    0---...
 11C 0 0 101 122 135  00  00  00  169  188    0---...
 12C 0 0  71 112 225  00  00  00  169  160    0---...
 13C 0 0 115 142 181  00  00  00  211  188    0---...
 14C 0 0 132 151 255  00  00  00  247  174    0---...
 15C 1 0 141 162  00  00  00  00  289  174    0--....
 16C 0 0 152 171 265  00  00  00  325  188    0---...
 17C 1 0 161 182  00  00  00  00  289  202    0--....
 18C 0 0 131 172 275  00  00  00  247  202    0---...
 19N 0 0  25 286 296  00  00  00  133   34    0---...
 20N 0 0  65 306 316  00  00  00   61  118    0---...
 21N 0 0  45 326 336  00  00  00  205   90    0---...
 22N 0 0 125 346 356  00  00  00  190  136    0---...
 23N 0 0  85 436 446  00  00  00   55  160    0---...
 24N 0 0 105 366 376  00  00  00  133  230    0---...
 25N 0 0 145 456 426  00  00  00  247  146    0---...
 26N 0 0 165 406 416  00  00  00  367  188    0---...
 27N 0 0 185 386 396  00  00  00  247  230    0---...
 28O 0 0 196  00  00  00  00  00  100   19    0-.....
 29O 0 0 196  00  00  00  00  00  166   19    0-.....
 30O 0 0 206  00  00  00  00  00   58  146    0-.....
 31O 0 0 206  00  00  00  00  00   27  104    0-.....
 32O 0 0 216  00  00  00  00  00  208   62    0-.....
 33O 0 0 216  00  00  00  00  00  239  104    0-.....
 34O 0 0 226  00  00  00  00  00  195  116    0-.....
 35O 0 0 226  00  00  00  00  00  229  136    0-.....
 36O 0 0 246  00  00  00  00  00  166  245    0-.....
 37O 0 0 246  00  00  00  00  00  100  245    0-.....
 38O 0 0 276  00  00  00  00  00  280  245    0-.....
 39O 0 0 276  00  00  00  00  00  214  245    0-.....
 40O 0 0 266  00  00  00  00  00  388  164    0-.....
 41O 0 0 266  00  00  00  00  00  388  212    0-.....
 42O 0 0 256  00  00  00  00  00  289  146    0-.....
 43O 0 0 236  00  00  00  00  00   19  174    0-.....
 44O 0 0 236  00  00  00  00  00   55  188    0-.....
 45O 0 0 256  00  00  00  00  00  268  122    0-.....
156     43  C9H10-N12O22         1
  1N 0 0  25 406 416  00  00  00   72  207    0---...
  2C 0 0  15  35  45  55  00  00  114  207    0----..
  3N 0 0  25 386 396  00  00  00  114  179    0---...
  4N 0 0  25 426 436  00  00  00  114  235    0---...
  5C 2 0  25  65  00  00  00  00  156  207    0--....
  6O 0 0  55  75  00  00  00  00  192  193    0--....
  7C 0 0  65  86  95  00  00  00  228  207    0---...
  8O 0 0  76  00  00  00  00  00  228  235    0-.....
  9N 0 0  75 105 115  00  00  00  264  193    0---...
 10N 0 0  95 366 376  00  00  00  285  217    0---...
 11C 2 0  95 125  00  00  00  00  300  179    0--....
 12N 0 0 115 135 145  00  00  00  321  155    0---...
 13N 0 0 125 346 356  00  00  00  357  169    0---...
 14C 2 0 125 155  00  00  00  00  342  131    0--....
 15C 2 0 145 165  00  00  00  00  378  117    0--....
 16N 0 0 155 175 185  00  00  00  378   89    0---...
 17N 0 0 165 326 336  00  00  00  420   89    0---...
 18C 0 0 165 196 205  00  00  00  378   61    0---...
 19O 0 0 186  00  00  00  00  00  414   47    0-.....
 20O 0 0 185 215  00  00  00  00  342   47    0--....
 21C 2 0 205 225  00  00  00  00  300   47    0--....
 22C 0 0 215 235 245 255  00  00  264   61    0----..
 23N 0 0 225 306 316  00  00  00  264   89    0---...
 24N 0 0 225 266 276  00  00  00  243   37    0---...
 25N 0 0 225 286 296  00  00  00  228   75    0---...
 26O 0 0 246  00  00  00  00  00  204   37    0-.....
 27O 0 0 246  00  00  00  00  00  260   11    0-.....
 28O 0 0 256  00  00  00  00  00  225  103    0-.....
 29O 0 0 256  00  00  00  00  00  194   61    0-.....
 30O 0 0 236  00  00  00  00  00  297  104    0-.....
 31O 0 0 236  00  00  00  00  00  231  104    0-.....
 32O 0 0 176  00  00  00  00  00  441   65    0-.....
 33O 0 0 176  00  00  00  00  00  441  113    0-.....
 34O 0 0 136  00  00  00  00  00  391  155    0-.....
 35O 0 0 136  00  00  00  00  00  360  197    0-.....
 36O 0 0 106  00  00  00  00  00  324  217    0-.....
 37O 0 0 106  00  00  00  00  00  268  243    0-.....
 38O 0 0  36  00  00  00  00  00   81  164    0-.....
 39O 0 0  36  00  00  00  00  00  147  164    0-.....
 40O 0 0  16  00  00  00  00  00   51  231    0-.....
 41O 0 0  16  00  00  00  00  00   51  183    0-.....
 42O 0 0  46  00  00  00  00  00  147  250    0-.....
 43O 0 0  46  00  00  00  00  00   81  250    0-.....
157     31  C9H12-N8O14          1
  1C 0 0 225 235 245 255  00  00  133  213    0----..
  2C 0 0  36  45 215  00  00  00  253  199    0---...
  3O 0 0  26  00  00  00  00  00  232  175    0-.....
  4N 1 0  25  55  00  00  00  00  289  185    0--....
  5C 2 0  45  65  00  00  00  00  325  199    0--....
  6N 1 0  55  75  00  00  00  00  346  175    0--....
  7C 0 0  65  86  95  00  00  00  382  161    0---...
  8O 0 0  76  00  00  00  00  00  361  137    0-.....
  9C 2 0  75 105  00  00  00  00  403  137    0--....
 10C 2 0  95 115  00  00  00  00  403  109    0--....
 11C 0 0 105 125 135 145  00  00  403   81    0----..
 12N 0 0 115 196 206  00  00  00  361   81    0---...
 13N 0 0 115 176 186  00  00  00  445   81    0---...
 14N 0 0 115 156 166  00  00  00  403   53    0---...
 15O 0 0 146  00  00  00  00  00  370   38    0-.....
 16O 0 0 146  00  00  00  00  00  436   38    0-.....
 17O 0 0 136  00  00  00  00  00  466   57    0-.....
 18O 0 0 136  00  00  00  00  00  466  105    0-.....
 19O 0 0 126  00  00  00  00  00  340  105    0-.....
 20O 0 0 126  00  00  00  00  00  340   57    0-.....
 21C 2 0  25 225  00  00  00  00  217  213    0--....
 22C 2 0 215  15  00  00  00  00  175  213    0--....
 23N 0 0  15 266 276  00  00  00  133  185    0---...
 24N 0 0  15 306 316  00  00  00  133  241    0---...
 25N 0 0  15 286 296  00  00  00   91  213    0---...
 26O 0 0 236  00  00  00  00  00  100  170    0-.....
 27O 0 0 236  00  00  00  00  00  166  170    0-.....
 28O 0 0 256  00  00  00  00  00   70  237    0-.....
 29O 0 0 256  00  00  00  00  00   70  189    0-.....
 30O 0 0 246  00  00  00  00  00  166  256    0-.....
 31O 0 0 246  00  00  00  00  00  100  256    0-.....
158     41  C9H12-N12O20         1
  1N 0 0  25 386 396  00  00  00   85  206    0---...
  2C 0 0  15  35  45  55  00  00  127  206    0----..
  3N 0 0  25 366 376  00  00  00  127  178    0---...
  4N 0 0  25 406 416  00  00  00  127  234    0---...
  5C 2 0  25  65  00  00  00  00  169  206    0--....
  6N 0 0  55  75  85  00  00  00  190  182    0---...
  7N 0 0  65 346 356  00  00  00  211  206    0---...
  8C 2 0  65  95  00  00  00  00  226  168    0--....
  9C 2 0  85 105  00  00  00  00  268  168    0--....
 10C 0 0  95 115 125 135  00  00  289  144    0----..
 11N 0 0 105 286 296  00  00  00  253  130    0---...
 12N 0 0 105 306 316  00  00  00  325  158    0---...
 13C 2 0 105 145  00  00  00  00  310  120    0--....
 14C 2 0 135 155  00  00  00  00  310   92    0--....
 15N 0 0 145 165 175  00  00  00  289   68    0---...
 16N 0 0 155 326 336  00  00  00  325   54    0---...
 17C 2 0 155 185  00  00  00  00  253   54    0--....
 18C 0 0 175 195 205 215  00  00  217   68    0----..
 19N 0 0 185 226 236  00  00  00  196   44    0---...
 20N 0 0 185 246 256  00  00  00  181   82    0---...
 21N 0 0 185 266 276  00  00  00  238   92    0---...
 22O 0 0 196  00  00  00  00  00  157   44    0-.....
 23O 0 0 196  00  00  00  00  00  213   18    0-.....
 24O 0 0 206  00  00  00  00  00  178  110    0-.....
 25O 0 0 206  00  00  00  00  00  147   68    0-.....
 26O 0 0 216  00  00  00  00  00  277   92    0-.....
 27O 0 0 216  00  00  00  00  00  221  118    0-.....
 28O 0 0 116  00  00  00  00  00  219  144    0-.....
 29O 0 0 116  00  00  00  00  00  250  102    0-.....
 30O 0 0 126  00  00  00  00  00  359  144    0-.....
 31O 0 0 126  00  00  00  00  00  328  186    0-.....
 32O 0 0 166  00  00  00  00  00  328   26    0-.....
 33O 0 0 166  00  00  00  00  00  359   68    0-.....
 34O 0 0  76  00  00  00  00  00  250  206    0-.....
 35O 0 0  76  00  00  00  00  00  194  232    0-.....
 36O 0 0  36  00  00  00  00  00   94  163    0-.....
 37O 0 0  36  00  00  00  00  00  160  163    0-.....
 38O 0 0  16  00  00  00  00  00   64  230    0-.....
 39O 0 0  16  00  00  00  00  00   64  182    0-.....
 40O 0 0  46  00  00  00  00  00  160  249    0-.....
 41O 0 0  46  00  00  00  00  00   94  249    0-.....
159     33  C7H10-N10O16         1
  1N 0 0  25 206 216  00  00  00   81  204    0---...
  2C 0 0  15  35  45  55  00  00  123  204    0----..
  3N 0 0  25 186 196  00  00  00  123  176    0---...
  4N 0 0  25 226 236  00  00  00  123  232    0---...
  5C 2 0  25  65  00  00  00  00  165  204    0--....
  6C 2 0  55  75  00  00  00  00  201  218    0--....
  7N 0 0  65  85  95  00  00  00  237  204    0---...
  8N 0 0  75 246 256  00  00  00  216  180    0---...
  9C 2 0  75 105  00  00  00  00  279  204    0--....
 10N 0 0  95 115 125  00  00  00  315  190    0---...
 11N 0 0 105 266 276  00  00  00  294  166    0---...
 12C 2 0 105 135  00  00  00  00  357  190    0--....
 13C 2 0 125 145  00  00  00  00  393  176    0--....
 14C 0 0 135 155 165 175  00  00  393  148    0----..
 15N 0 0 145 326 336  00  00  00  351  148    0---...
 16N 0 0 145 306 316  00  00  00  435  148    0---...
 17N 0 0 145 286 296  00  00  00  393  120    0---...
 18O 0 0  36  00  00  00  00  00   90  161    0-.....
 19O 0 0  36  00  00  00  00  00  156  161    0-.....
 20O 0 0  16  00  00  00  00  00   60  228    0-.....
 21O 0 0  16  00  00  00  00  00   60  180    0-.....
 22O 0 0  46  00  00  00  00  00  156  247    0-.....
 23O 0 0  46  00  00  00  00  00   90  247    0-.....
 24O 0 0  86  00  00  00  00  00  177  180    0-.....
 25O 0 0  86  00  00  00  00  00  233  154    0-.....
 26O 0 0 116  00  00  00  00  00  255  166    0-.....
 27O 0 0 116  00  00  00  00  00  311  140    0-.....
 28O 0 0 176  00  00  00  00  00  360  105    0-.....
 29O 0 0 176  00  00  00  00  00  426  105    0-.....
 30O 0 0 166  00  00  00  00  00  456  124    0-.....
 31O 0 0 166  00  00  00  00  00  456  172    0-.....
 32O 0 0 156  00  00  00  00  00  351  120    0-.....
 33O 0 0 156  00  00  00  00  00  330  124    0-.....
160     27  C10H7-N5O12          1
  1C 0 0  22  61  75  00  00  00  158  133    0---...
  2C 0 0  12  31 195  00  00  00  122  147    0---...
  3C 1 0  21  42  00  00  00  00  122  175    0--....
  4C 0 0  32  51 215  00  00  00  158  189    0---...
  5C 1 0  41  62  00  00  00  00  194  175    0--....
  6C 0 0  52  11 205  00  00  00  194  147    0---...
  7C 0 0  15  85  96  00  00  00  158  105    0---...
  8O 0 0  75 105  00  00  00  00  194   91    0--....
  9O 0 0  76  00  00  00  00  00  116  105    0-.....
 10C 2 0  85 115  00  00  00  00  236   91    0--....
 11C 0 0 105 125 135 145  00  00  272   77    0----..
 12C 3 0 115  00  00  00  00  00  314   77    0-.....
 13N 0 0 115 156 166  00  00  00  251   53    0---...
 14N 0 0 115 176 186  00  00  00  272  105    0---...
 15O 0 0 136  00  00  00  00  00  212   53    0-.....
 16O 0 0 136  00  00  00  00  00  268   27    0-.....
 17O 0 0 146  00  00  00  00  00  305  120    0-.....
 18O 0 0 146  00  00  00  00  00  239  120    0-.....
 19N 0 0  25 226 236  00  00  00   80  147    0---...
 20N 0 0  65 246 256  00  00  00  230  161    0---...
 21N 0 0  45 266 276  00  00  00  158  217    0---...
 22O 0 0 196  00  00  00  00  00   59  171    0-.....
 23O 0 0 196  00  00  00  00  00   59  123    0-.....
 24O 0 0 206  00  00  00  00  00  264  147    0-.....
 25O 0 0 206  00  00  00  00  00  233  189    0-.....
 26O 0 0 216  00  00  00  00  00  191  232    0-.....
 27O 0 0 216  00  00  00  00  00  125  232    0-.....
161     32  C10H12-N6O16         1
  1N 0 0  25 236 246  00  00  00   66  213    0---...
  2C 0 0  15  35  45  55  00  00  102  199    0----..
  3N 0 0  25 256 266  00  00  00  123  223    0---...
  4N 0 0  25 216 226  00  00  00   81  175    0---...
  5C 2 0  25  65  00  00  00  00  138  185    0--....
  6C 2 0  55  75  00  00  00  00  174  199    0--....
  7C 0 0  65  86  95  00  00  00  210  185    0---...
  8O 0 0  76  00  00  00  00  00  189  161    0-.....
  9O 0 0  75 105  00  00  00  00  252  185    0--....
 10C 2 0  95 115  00  00  00  00  288  199    0--....
 11C 2 0 105 125  00  00  00  00  309  175    0--....
 12O 0 0 115 135  00  00  00  00  351  175    0--....
 13C 0 0 125 146 155  00  00  00  372  151    0---...
 14O 0 0 136  00  00  00  00  00  336  137    0-.....
 15C 2 0 135 165  00  00  00  00  393  127    0--....
 16C 2 0 155 175  00  00  00  00  393   99    0--....
 17C 0 0 165 185 195 205  00  00  372   75    0----..
 18N 0 0 175 296 306  00  00  00  408   61    0---...
 19N 0 0 175 316 326  00  00  00  336   89    0---...
 20N 0 0 175 276 286  00  00  00  351   51    0---...
 21O 0 0  46  00  00  00  00  00   42  175    0-.....
 22O 0 0  46  00  00  00  00  00   98  149    0-.....
 23O 0 0  16  00  00  00  00  00   63  241    0-.....
 24O 0 0  16  00  00  00  00  00   32  199    0-.....
 25O 0 0  36  00  00  00  00  00  162  223    0-.....
 26O 0 0  36  00  00  00  00  00  106  249    0-.....
 27O 0 0 206  00  00  00  00  00  312   51    0-.....
 28O 0 0 206  00  00  00  00  00  368   25    0-.....
 29O 0 0 186  00  00  00  00  00  411   33    0-.....
 30O 0 0 186  00  00  00  00  00  442   75    0-.....
 31O 0 0 196  00  00  00  00  00  333  117    0-.....
 32O 0 0 196  00  00  00  00  00  302   75    0-.....
162     36  C10H12-N8O18         1
  1N 0 0  25 336 346  00  00  00   92  199    0---...
  2C 0 0  15  35  45  55  00  00  134  199    0----..
  3N 0 0  25 316 326  00  00  00  134  171    0---...
  4N 0 0  25 356 366  00  00  00  134  227    0---...
  5C 2 0  25  65  00  00  00  00  170  185    0--....
  6O 0 0  55  75  00  00  00  00  206  199    0--....
  7C 0 0  65  86  95  00  00  00  242  185    0---...
  8O 0 0  76  00  00  00  00  00  242  213    0-.....
  9C 2 0  75 105  00  00  00  00  284  185    0--....
 10C 2 0  95 115  00  00  00  00  320  171    0--....
 11N 0 0 105 125 135  00  00  00  362  171    0---...
 12N 0 0 115 296 306  00  00  00  362  199    0---...
 13C 2 0 115 145  00  00  00  00  398  157    0--....
 14C 2 0 135 155  00  00  00  00  398  129    0--....
 15C 0 0 145 166 175  00  00  00  419  105    0---...
 16O 0 0 156  00  00  00  00  00  461  105    0-.....
 17O 0 0 155 185  00  00  00  00  398   81    0--....
 18C 2 0 175 195  00  00  00  00  362   67    0--....
 19C 0 0 185 205 215 225  00  00  320   67    0----..
 20N 0 0 195 236 246  00  00  00  320   39    0---...
 21N 0 0 195 276 286  00  00  00  320   95    0---...
 22N 0 0 195 256 266  00  00  00  278   67    0---...
 23O 0 0 206  00  00  00  00  00  287   24    0-.....
 24O 0 0 206  00  00  00  00  00  353   24    0-.....
 25O 0 0 226  00  00  00  00  00  257   91    0-.....
 26O 0 0 226  00  00  00  00  00  257   43    0-.....
 27O 0 0 216  00  00  00  00  00  353  110    0-.....
 28O 0 0 216  00  00  00  00  00  287  110    0-.....
 29O 0 0 126  00  00  00  00  00  395  214    0-.....
 30O 0 0 126  00  00  00  00  00  329  214    0-.....
 31O 0 0  36  00  00  00  00  00  101  156    0-.....
 32O 0 0  36  00  00  00  00  00  167  156    0-.....
 33O 0 0  16  00  00  00  00  00   71  223    0-.....
 34O 0 0  16  00  00  00  00  00   71  175    0-.....
 35O 0 0  46  00  00  00  00  00  167  242    0-.....
 36O 0 0  46  00  00  00  00  00  101  242    0-.....
163     40  C10H12-N10O20        1
  1N 0 0  25 276 286  00  00  00   69  234    0---...
  2C 0 0  15  35  45  55  00  00  105  220    0----..
  3N 0 0  25 256 266  00  00  00   84  196    0---...
  4N 0 0  25 296 306  00  00  00  126  244    0---...
  5C 2 0  25  65  00  00  00  00  141  206    0--....
  6O 0 0  55  75  00  00  00  00  183  206    0--....
  7C 0 0  65  86  95  00  00  00  219  192    0---...
  8O 0 0  76  00  00  00  00  00  219  220    0-.....
  9C 2 0  75 105  00  00  00  00  261  192    0--....
 10N 0 0  95 115 125  00  00  00  297  178    0---...
 11N 0 0 105 316 326  00  00  00  318  202    0---...
 12C 2 0 105 135  00  00  00  00  339  178    0--....
 13C 2 0 125 145  00  00  00  00  360  154    0--....
 14N 0 0 135 155 165  00  00  00  396  140    0---...
 15N 0 0 145 336 346  00  00  00  417  164    0---...
 16C 2 0 145 175  00  00  00  00  396  112    0--....
 17C 0 0 165 186 195  00  00  00  375   88    0---...
 18O 0 0 176  00  00  00  00  00  411   74    0-.....
 19O 0 0 175 205  00  00  00  00  354   64    0--....
 20C 2 0 195 215  00  00  00  00  312   64    0--....
 21C 0 0 205 225 235 245  00  00  276   78    0----..
 22N 0 0 215 356 366  00  00  00  276  106    0---...
 23N 0 0 215 396 406  00  00  00  276   50    0---...
 24N 0 0 215 376 386  00  00  00  234   78    0---...
 25O 0 0  36  00  00  00  00  00   45  196    0-.....
 26O 0 0  36  00  00  00  00  00  101  170    0-.....
 27O 0 0  16  00  00  00  00  00   66  262    0-.....
 28O 0 0  16  00  00  00  00  00   35  220    0-.....
 29O 0 0  46  00  00  00  00  00  165  244    0-.....
 30O 0 0  46  00  00  00  00  00  109  270    0-.....
 31O 0 0 116  00  00  00  00  00  357  202    0-.....
 32O 0 0 116  00  00  00  00  00  301  228    0-.....
 33O 0 0 156  00  00  00  00  00  456  164    0-.....
 34O 0 0 156  00  00  00  00  00  400  190    0-.....
 35O 0 0 226  00  00  00  00  00  309  121    0-.....
 36O 0 0 226  00  00  00  00  00  243  121    0-.....
 37O 0 0 246  00  00  00  00  00  213  102    0-.....
 38O 0 0 246  00  00  00  00  00  213   54    0-.....
 39O 0 0 236  00  00  00  00  00  243   35    0-.....
 40O 0 0 236  00  00  00  00  00  309   35    0-.....
