GLA1     6
  1C 3 0  25 000 000 000 000 000  302  290    0-.....
  2C 2 0  15  35 000 000 000 000  328  275    0--....
  3C 2 0  25  45 000 000 000 000  354  290    0--....
  4C 1 0  35  55  65 000 000 000  380  275    0---...
  5C 3 0  45 000 000 000 000 000  406  290    0-.....
  6C 3 0  45 000 000 000 000 000  380  245    0-.....
GLA2     7
  1C 3 0  25 000 000 000 000 000  302  290    0-.....
  2C 2 0  15  35 000 000 000 000  328  275    0--....
  3C 2 0  25  45 000 000 000 000  354  290    0--....
  4C 1 0  35  55  65 000 000 000  380  275    0---...
  5C 2 0  45  75 000 000 000 000  406  290    0--....
  6C 3 0  45 000 000 000 000 000  380  245    0-.....
  7C 3 0  55 000 000 000 000 000  432  275    0-.....
GLA3     6
  1C 3 0  25 000 000 000 000 000  328  275    0-.....
  2C 1 0  15  35  65 000 000 000  354  290    0---...
  3C 1 0  25  45  55 000 000 000  380  275    0---...
  4C 3 0  35 000 000 000 000 000  406  290    0-.....
  5C 3 0  35 000 000 000 000 000  380  245    0-.....
  6C 3 0  25 000 000 000 000 000  354  320    0-.....
GLA4     8
  1C 2 0  21  61 000 000 000 000  330  286    0--....
  2C 2 0  11  31 000 000 000 000  345  311    0--....
  3C 2 0  21  41 000 000 000 000  375  311    0--....
  4C 1 0  31  51  75 000 000 000  390  286    0---...
  5C 2 0  41  61 000 000 000 000  375  260    0--....
  6C 2 0  51  11 000 000 000 000  345  260    0--....
  7C 2 0  45  85 000 000 000 000  420  286    0--....
  8C 3 0  75 000 000 000 000 000  435  311    0-.....
GLA5     9
  1C 2 0  21  61 000 000 000 000  330  286    0--....
  2C 2 0  11  31 000 000 000 000  345  311    0--....
  3C 2 0  21  41 000 000 000 000  375  311    0--....
  4C 1 0  31  51  75 000 000 000  390  286    0---...
  5C 2 0  41  61 000 000 000 000  375  260    0--....
  6C 2 0  51  11 000 000 000 000  345  260    0--....
  7C 1 0  45  85  95 000 000 000  420  286    0---...
  8C 3 0  75 000 000 000 000 000  435  311    0-.....
  9C 3 0  75 000 000 000 000 000  435  260    0-.....
GLA6    12
  1C 2 0  21  61 000 000 000 000  330  286    0--....
  2C 2 0  11  31 000 000 000 000  345  311    0--....
  3C 2 0  21  41 000 000 000 000  375  311    0--....
  4C 1 0  31  51  75 000 000 000  390  286    0---...
  5C 2 0  41  61 000 000 000 000  375  260    0--....
  6C 2 0  51  11 000 000 000 000  345  260    0--....
  7C 2 0  45  85 000 000 000 000  420  286    0--....
  8C 2 0  75  95 000 000 000 000  435  260    0--....
  9C 2 0  85 105 000 000 000 000  465  260    0--....
 10C 2 0  95 115 000 000 000 000  480  234    0--....
 11C 2 0 105 125 000 000 000 000  510  234    0--....
 12C 3 0 115 000 000 000 000 000  525  207    0-.....
GLA7     7
  1C 2 0  21  61 000 000 000 000  330  286    0--....
  2C 2 0  11  31 000 000 000 000  345  311    0--....
  3C 2 0  21  41 000 000 000 000  375  311    0--....
  4C 1 0  31  51  75 000 000 000  390  286    0---...
  5C 2 0  41  61 000 000 000 000  375  260    0--....
  6C 2 0  51  11 000 000 000 000  345  260    0--....
  7C 3 0  45 000 000 000 000 000  420  286    0-.....
GLA8    10
  1C 2 0  21  61 000 000 000 000  330  286    0--....
  2C 2 0  11  31 000 000 000 000  345  311    0--....
  3C 2 0  21  41 000 000 000 000  375  311    0--....
  4C 1 0  31  51  75 000 000 000  390  286    0---...
  5C 2 0  41  61 000 000 000 000  375  260    0--....
  6C 2 0  51  11 000 000 000 000  345  260    0--....
  7C 1 0  45  85  95 000 000 000  420  286    0---...
  8C 3 0  75 000 000 000 000 000  435  311    0-.....
  9C 2 0  75 105 000 000 000 000  435  260    0--....
 10C 3 0  95 000 000 000 000 000  465  260    0-.....
GLA9    10
  1C 2 0  21  61 000 000 000 000  330  286    0--....
  2C 2 0  11  31 000 000 000 000  345  311    0--....
  3C 2 0  21  41 000 000 000 000  375  311    0--....
  4C 1 0  31  51  75 000 000 000  390  286    0---...
  5C 2 0  41  61 000 000 000 000  375  260    0--....
  6C 2 0  51  11 000 000 000 000  345  260    0--....
  7C 2 0  45  85 000 000 000 000  420  286    0--....
  8C 2 0  75  95 000 000 000 000  435  260    0--....
  9C 2 0  85 105 000 000 000 000  465  260    0--....
 10C 3 0  95 000 000 000 000 000  480  234    0-.....
GLA10   11
  1C 2 0  21  61 000 000 000 000  330  286    0--....
  2C 2 0  11  31 000 000 000 000  345  311    0--....
  3C 2 0  21  41 000 000 000 000  375  311    0--....
  4C 1 0  31  51  75 000 000 000  390  286    0---...
  5C 2 0  41  61 000 000 000 000  375  260    0--....
  6C 2 0  51  11 000 000 000 000  345  260    0--....
  7C 2 0  45  85 000 000 000 000  420  286    0--....
  8C 2 0  75  95 000 000 000 000  435  260    0--....
  9C 2 0  85 105 000 000 000 000  465  260    0--....
 10C 2 0  95 115 000 000 000 000  480  234    0--....
 11C 3 0 105 000 000 000 000 000  510  234    0-.....
GLA11    7
  1C 2 0  26 000 000 000 000 000  345  311    0-.....
  2C 1 0  16  35 000 000 000 000  375  311    0--....
  3C 2 0  25  45 000 000 000 000  390  286    0--....
  4C 2 0  35  55 000 000 000 000  420  286    0--....
  5C 2 0  45  65 000 000 000 000  435  260    0--....
  6C 2 0  55  75 000 000 000 000  465  260    0--....
  7C 3 0  65 000 000 000 000 000  480  234    0-.....
GLA12    5
  1C 1 0  26  55 000 000 000 000  345  311    0--....
  2C 0 0  16  35  45 000 000 000  375  311    0---...
  3C 3 0  25 000 000 000 000 000  390  286    0-.....
  4C 3 0  25 000 000 000 000 000  390  338    0-.....
  5C 3 0  15 000 000 000 000 000  330  338    0-.....
GLA13    8
  1C 1 0  26  45 000 000 000 000  345  311    0--....
  2C 1 0  16  35 000 000 000 000  375  311    0--....
  3C 2 0  25  55 000 000 000 000  390  338    0--....
  4C 3 0  15 000 000 000 000 000  330  338    0-.....
  5C 2 0  35  65 000 000 000 000  420  338    0--....
  6C 2 0  55  75 000 000 000 000  435  363    0--....
  7C 2 0  65  85 000 000 000 000  465  363    0--....
  8C 3 0  75 000 000 000 000 000  480  390    0-.....
GLA14    6
  1C 2 0  26 000 000 000 000 000  295  272    0-.....
  2C 1 0  16  35 000 000 000 000  325  272    0--....
  3C 2 0  25  45 000 000 000 000  340  298    0--....
  4C 2 0  35  55 000 000 000 000  370  298    0--....
  5C 2 0  45  65 000 000 000 000  385  325    0--....
  6C 3 0  55 000 000 000 000 000  415  325    0-.....
GLA15    7
  1C 1 0  26  75 000 000 000 000  295  272    0--....
  2C 1 0  16  35 000 000 000 000  325  272    0--....
  3C 2 0  25  45 000 000 000 000  340  298    0--....
  4C 2 0  35  55 000 000 000 000  370  298    0--....
  5C 2 0  45  65 000 000 000 000  385  325    0--....
  6C 3 0  55 000 000 000 000 000  415  325    0-.....
  7C 3 0  15 000 000 000 000 000  280  298    0-.....
GLA16    6
  1C 1 0  26  65 000 000 000 000  295  272    0--....
  2C 1 0  16  35 000 000 000 000  325  272    0--....
  3C 2 0  25  45 000 000 000 000  340  298    0--....
  4C 2 0  35  55 000 000 000 000  370  298    0--....
  5C 3 0  45 000 000 000 000 000  385  325    0-.....
  6C 3 0  15 000 000 000 000 000  280  246    0-.....
GLA17    7
  1C 1 0  22  61 000 000 000 000  313  280    0--....
  2C 1 0  12  31 000 000 000 000  328  306    0--....
  3C 1 0  21  42 000 000 000 000  358  306    0--....
  4C 0 0  32  51  75 000 000 000  374  280    0---...
  5C 1 0  41  62 000 000 000 000  358  254    0--....
  6C 1 0  52  11 000 000 000 000  328  254    0--....
  7C 3 0  45 000 000 000 000 000  403  280    0-.....
GLA18   10
  1C 1 0  22  61 000 000 000 000  313  280    0--....
  2C 1 0  12  31 000 000 000 000  328  306    0--....
  3C 1 0  21  42 000 000 000 000  358  306    0--....
  4C 0 0  32  51  75 000 000 000  374  280    0---...
  5C 1 0  41  62 000 000 000 000  358  254    0--....
  6C 1 0  52  11 000 000 000 000  328  254    0--....
  7C 1 0  45  85  95 000 000 000  403  280    0---...
  8C 3 0  75 000 000 000 000 000  418  306    0-.....
  9C 2 0  75 105 000 000 000 000  418  254    0--....
 10C 3 0  95 000 000 000 000 000  449  254    0-.....
GLA19    8
  1C 1 0  22  61 000 000 000 000  313  280    0--....
  2C 1 0  12  31 000 000 000 000  328  306    0--....
  3C 1 0  21  42 000 000 000 000  358  306    0--....
  4C 0 0  32  51  75 000 000 000  374  280    0---...
  5C 1 0  41  62 000 000 000 000  358  254    0--....
  6C 1 0  52  11 000 000 000 000  328  254    0--....
  7C 2 0  45  85 000 000 000 000  403  280    0--....
  8C 3 0  75 000 000 000 000 000  418  254    0-.....
GLA20    9
  1C 1 0  22  61 000 000 000 000  313  280    0--....
  2C 1 0  12  31 000 000 000 000  328  306    0--....
  3C 1 0  21  42 000 000 000 000  358  306    0--....
  4C 0 0  32  51  75 000 000 000  374  280    0---...
  5C 1 0  41  62 000 000 000 000  358  254    0--....
  6C 1 0  52  11 000 000 000 000  328  254    0--....
  7C 1 0  45  85  95 000 000 000  403  280    0---...
  8C 3 0  75 000 000 000 000 000  418  254    0-.....
  9C 3 0  75 000 000 000 000 000  418  306    0-.....
GLA21   10
  1C 1 0  22  61 000 000 000 000  313  280    0--....
  2C 1 0  12  31 000 000 000 000  328  306    0--....
  3C 1 0  21  42 000 000 000 000  358  306    0--....
  4C 0 0  32  51  75 000 000 000  374  280    0---...
  5C 1 0  41  62 000 000 000 000  358  254    0--....
  6C 1 0  52  11 000 000 000 000  328  254    0--....
  7C 0 0  45  85  95 105 000 000  403  280    0----..
  8C 3 0  75 000 000 000 000 000  418  254    0-.....
  9C 3 0  75 000 000 000 000 000  418  306    0-.....
 10C 3 0  75 000 000 000 000 000  433  280    0-.....
GLA22   10
  1C 1 0  22  61 000 000 000 000  280  295    0--....
  2C 1 0  12  31 000 000 000 000  295  320    0--....
  3C 1 0  21  42 000 000 000 000  325  320    0--....
  4C 0 0  32  51  75 000 000 000  340  295    0---...
  5C 1 0  41  62 000 000 000 000  325  269    0--....
  6C 1 0  52  11 000 000 000 000  295  269    0--....
  7C 2 0  45  85 000 000 000 000  370  295    0--....
  8C 2 0  75  95 000 000 000 000  385  269    0--....
  9C 2 0  85 105 000 000 000 000  415  269    0--....
 10C 3 0  95 000 000 000 000 000  430  242    0-.....
GLA23    9
  1C 1 0  22  61 000 000 000 000  280  295    0--....
  2C 1 0  12  31 000 000 000 000  295  320    0--....
  3C 1 0  21  42 000 000 000 000  325  320    0--....
  4C 0 0  32  51  75 000 000 000  340  295    0---...
  5C 1 0  41  62 000 000 000 000  325  269    0--....
  6C 1 0  52  11 000 000 000 000  295  269    0--....
  7C 2 0  45  85 000 000 000 000  370  295    0--....
  8C 2 0  75  95 000 000 000 000  385  269    0--....
  9C 3 0  85 000 000 000 000 000  415  269    0-.....
GLA24   11
  1C 1 0  22  61 000 000 000 000  328  297    0--....
  2C 1 0  12  31 000 000 000 000  344  324    0--....
  3C 1 0  21  42 000 000 000 000  374  324    0--....
  4C 0 0  32  51  75 000 000 000  388  297    0---...
  5C 1 0  41  62 000 000 000 000  374  271    0--....
  6C 1 0  52  11 000 000 000 000  344  271    0--....
  7C 2 0  45  85 000 000 000 000  418  297    0--....
  8C 2 0  75  95 000 000 000 000  433  271    0--....
  9C 2 0  85 105 000 000 000 000  463  271    0--....
 10C 2 0  95 115 000 000 000 000  478  245    0--....
 11C 3 0 105 000 000 000 000 000  508  245    0-.....
GLA25   12
  1C 1 0  22  61 000 000 000 000  328  297    0--....
  2C 1 0  12  31 000 000 000 000  344  324    0--....
  3C 1 0  21  42 000 000 000 000  374  324    0--....
  4C 0 0  32  51  75 000 000 000  388  297    0---...
  5C 1 0  41  62 000 000 000 000  374  271    0--....
  6C 1 0  52  11 000 000 000 000  344  271    0--....
  7C 2 0  45  85 000 000 000 000  418  297    0--....
  8C 2 0  75  95 000 000 000 000  433  271    0--....
  9C 2 0  85 105 000 000 000 000  463  271    0--....
 10C 2 0  95 115 000 000 000 000  478  245    0--....
 11C 2 0 105 125 000 000 000 000  508  245    0--....
 12C 3 0 115 000 000 000 000 000  524  220    0-.....
GLA26    8
  1C 1 0  22  61 000 000 000 000  328  297    0--....
  2C 0 0  12  31  85 000 000 000  344  324    0---...
  3C 1 0  21  42 000 000 000 000  374  324    0--....
  4C 0 0  32  51  75 000 000 000  388  297    0---...
  5C 1 0  41  62 000 000 000 000  374  271    0--....
  6C 1 0  52  11 000 000 000 000  344  271    0--....
  7C 3 0  45 000 000 000 000 000  418  297    0-.....
  8C 3 0  25 000 000 000 000 000  328  350    0-.....
GLA27   24
  1C 1 0  22  61 000 000 000 000  328  297    0--....
  2C 1 0  12  31 000 000 000 000  344  324    0--....
  3C 1 0  21  42 000 000 000 000  374  324    0--....
  4C 1 0  32  51 000 000 000 000  388  297    0--....
  5C 0 0  41  62 135 000 000 000  374  271    0---...
  6C 0 0  52  11  75 000 000 000  344  271    0---...
  7C 0 0  65  82 121 000 000 000  328  245    0---...
  8C 1 0  72  91 000 000 000 000  298  245    0--....
  9C 1 0  81 102 000 000 000 000  285  220    0--....
 10C 1 0  92 111 000 000 000 000  298  193    0--....
 11C 1 0 101 122 000 000 000 000  328  193    0--....
 12C 1 0 112  71 000 000 000 000  342  220    0--....
 13C 0 0  55 142 181 000 000 000  388  245    0---...
 14C 1 0 132 151 000 000 000 000  374  220    0--....
 15C 1 0 141 162 000 000 000 000  388  193    0--....
 16C 1 0 152 171 000 000 000 000  418  193    0--....
 17C 1 0 161 182 000 000 000 000  433  220    0--....
 18C 0 0 172 131 195 000 000 000  420  245    0---...
 19C 0 0 185 202 241 000 000 000  434  271    0---...
 20C 1 0 192 211 000 000 000 000  465  271    0--....
 21C 1 0 201 222 000 000 000 000  479  297    0--....
 22C 1 0 212 231 000 000 000 000  465  324    0--....
 23C 1 0 221 242 000 000 000 000  433  324    0--....
 24C 1 0 232 191 000 000 000 000  420  297    0--....
GLA28    3
  1C 3 0  25 000 000 000 000 000  346  290    0-.....
  2C 2 0  15  35 000 000 000 000  372  275    0--....
  3O 1 0  25 000 000 000 000 000  399  290    0-.....
GLA29    2
  1C 3 0  25 000 000 000 000 000  372  275    0-.....
  2O 1 0  15 000 000 000 000 000  399  290    0-.....
GLA30    5
  1C 2 0  25  35 000 000 000 000  372  275    0--....
  2O 1 0  15 000 000 000 000 000  399  290    0-.....
  3C 2 0  15  45 000 000 000 000  346  290    0--....
  4C 2 0  35  55 000 000 000 000  320  275    0--....
  5C 3 0  45 000 000 000 000 000  295  290    0-.....
GLA31    7
  1C 2 0  25  35 000 000 000 000  372  275    0--....
  2O 1 0  15 000 000 000 000 000  399  290    0-.....
  3C 2 0  15  45 000 000 000 000  346  290    0--....
  4C 2 0  35  55 000 000 000 000  320  275    0--....
  5C 2 0  45  65 000 000 000 000  295  290    0--....
  6C 2 0  55  75 000 000 000 000  269  275    0--....
  7C 3 0  65 000 000 000 000 000  243  290    0-.....
GLA32    6
  1C 2 0  25  35 000 000 000 000  372  275    0--....
  2O 1 0  15 000 000 000 000 000  399  290    0-.....
  3C 2 0  15  45 000 000 000 000  346  290    0--....
  4C 2 0  35  55 000 000 000 000  320  275    0--....
  5C 2 0  45  65 000 000 000 000  295  290    0--....
  6C 3 0  55 000 000 000 000 000  269  275    0-.....
GLA33    6
  1C 2 0  25  35 000 000 000 000  372  275    0--....
  2O 1 0  15 000 000 000 000 000  399  290    0-.....
  3C 1 0  15  45  65 000 000 000  346  290    0---...
  4C 2 0  35  55 000 000 000 000  320  275    0--....
  5O 1 0  45 000 000 000 000 000  295  290    0-.....
  6O 1 0  35 000 000 000 000 000  346  320    0-.....
GLA34    4
  1C 2 0  25  35 000 000 000 000  372  275    0--....
  2O 1 0  15 000 000 000 000 000  399  290    0-.....
  3C 2 0  15  45 000 000 000 000  346  290    0--....
  4O 1 0  35 000 000 000 000 000  346  320    0-.....
GLA35    5
  1C 2 0  25  35 000 000 000 000  372  275    0--....
  2O 1 0  15 000 000 000 000 000  399  290    0-.....
  3C 1 0  15  45  55 000 000 000  346  290    0---...
  4O 1 0  35 000 000 000 000 000  346  320    0-.....
  5C 3 0  35 000 000 000 000 000  320  275    0-.....
GLA36    7
  1C 1 0  21  61  75 000 000 000  355  269    0---...
  2C 2 0  11  31 000 000 000 000  381  284    0--....
  3C 2 0  21  41 000 000 000 000  381  313    0--....
  4C 2 0  31  51 000 000 000 000  355  328    0--....
  5C 2 0  41  61 000 000 000 000  329  313    0--....
  6C 2 0  51  11 000 000 000 000  329  284    0--....
  7O 1 0  15 000 000 000 000 000  355  238    0-.....
GLA37   16
  1C 1 0  22  61 000 000 000 000  320  262    0--....
  2C 0 0  12  31  85 000 000 000  346  276    0---...
  3C 0 0  21  42  75 000 000 000  346  306    0---...
  4C 1 0  32  51 000 000 000 000  320  322    0--....
  5C 1 0  41  62 000 000 000 000  295  306    0--....
  6C 1 0  52  11 000 000 000 000  295  276    0--....
  7O 1 0  35 000 000 000 000 000  372  322    0-.....
  8C 0 0  25  96 105 000 000 000  372  262    0---...
  9O 0 0  86 000 000 000 000 000  372  231    0-.....
 10O 0 0  85 115 000 000 000 000  399  275    0--....
 11C 0 0 105 122 161 000 000 000  428  275    0---...
 12C 1 0 112 131 000 000 000 000  443  250    0--....
 13C 1 0 121 142 000 000 000 000  474  250    0--....
 14C 1 0 132 151 000 000 000 000  488  275    0--....
 15C 1 0 141 162 000 000 000 000  474  301    0--....
 16C 1 0 152 111 000 000 000 000  443  301    0--....
GLA38    8
  1C 1 0  22  61 000 000 000 000  335  305    0--....
  2C 1 0  12  31 000 000 000 000  309  290    0--....
  3C 1 0  21  42 000 000 000 000  309  261    0--....
  4C 0 0  32  51  75 000 000 000  335  245    0---...
  5C 1 0  41  62 000 000 000 000  360  261    0--....
  6C 1 0  52  11 000 000 000 000  360  290    0--....
  7C 2 0  45  85 000 000 000 000  335  215    0--....
  8O 1 0  75 000 000 000 000 000  360  200    0-.....
GLA39    9
  1C 2 0  21  81 000 000 000 000  378  298    0--....
  2C 2 0  11  31 000 000 000 000  400  320    0--....
  3C 2 0  21  41 000 000 000 000  429  320    0--....
  4C 2 0  31  51 000 000 000 000  450  298    0--....
  5C 2 0  41  61 000 000 000 000  450  269    0--....
  6C 1 0  51  71  95 000 000 000  429  247    0---...
  7C 2 0  61  81 000 000 000 000  400  247    0--....
  8C 2 0  71  11 000 000 000 000  378  269    0--....
  9O 1 0  65 000 000 000 000 000  445  221    0-.....
GLA40   12
  1C 2 0  21  61 000 000 000 000  307  295    0--....
  2C 1 0  11  31 101 000 000 000  322  270    0---...
  3C 2 0  21  41 000 000 000 000  357  281    0--....
  4C 0 0  31  51  91 115 000 000  383  270    0----..
  5C 2 0  41  61 000 000 000 000  368  295    0--....
  6C 1 0  51  11  71 000 000 000  334  284    0---...
  7C 2 0  61  81 000 000 000 000  334  253    0--....
  8C 1 0  71  91 101 000 000 000  354  225    0---...
  9C 2 0  81  41 000 000 000 000  383  239    0--....
 10C 2 0  21  81 000 000 000 000  322  239    0--....
 11C 0 0  45 127 000 000 000 000  413  270    0--....
 12N 0 0 117 000 000 000 000 000  443  270    0-.....
GLA41    8
  1C 0 0  27  35 000 000 000 000  413  270    0--....
  2N 0 0  17 000 000 000 000 000  443  270    0-.....
  3C 1 0  15  41  81 000 000 000  383  270    0---...
  4C 2 0  31  51 000 000 000 000  368  295    0--....
  5C 2 0  41  61 000 000 000 000  338  295    0--....
  6C 2 0  51  71 000 000 000 000  323  270    0--....
  7C 2 0  61  81 000 000 000 000  338  244    0--....
  8C 2 0  71  31 000 000 000 000  368  244    0--....
GLA42    7
  1C 3 0  25 000 000 000 000 000  295  282    0-.....
  2C 2 0  15  35 000 000 000 000  321  267    0--....
  3N 0 0  25  45  65 000 000 000  347  282    0---...
  4C 2 0  35  55 000 000 000 000  374  267    0--....
  5C 3 0  45 000 000 000 000 000  400  282    0-.....
  6C 2 0  35  75 000 000 000 000  347  313    0--....
  7C 3 0  65 000 000 000 000 000  321  327    0-.....
GLA43    4
  1C 3 0  25 000 000 000 000 000  329  270    0-.....
  2C 0 0  15  36  45 000 000 000  345  245    0---...
  3O 0 0  26 000 000 000 000 000  329  219    0-.....
  4N 2 0  25 000 000 000 000 000  375  245    0-.....
GLA44    5
  1C 3 0  25 000 000 000 000 000  320  279    0-.....
  2C 2 0  15  35 000 000 000 000  346  264    0--....
  3C 1 0  25  45  55 000 000 000  372  279    0---...
  4C 3 0  35 000 000 000 000 000  399  264    0-.....
  5BR0 0  35 000 000 000 000 000  372  309    0-.....
GLA45    8
  1CL0 0  25 000 000 000 000 000  320  279    0-.....
  2C 0 0  15  35  65  75 000 000  346  264    0----..
  3C 0 0  25  45  55  85 000 000  372  279    0----..
  4CL0 0  35 000 000 000 000 000  399  264    0-.....
  5F 0 0  35 000 000 000 000 000  372  309    0-.....
  6CL0 0  25 000 000 000 000 000  346  235    0-.....
  7F 0 0  25 000 000 000 000 000  346  295    0-.....
  8CL0 0  35 000 000 000 000 000  372  250    0-.....
GLA46    5
  1C 3 0  25 000 000 000 000 000  320  279    0-.....
  2C 1 0  15  35  55 000 000 000  346  264    0---...
  3C 2 0  25  45 000 000 000 000  372  279    0--....
  4BR0 0  35 000 000 000 000 000  399  264    0-.....
  5C 3 0  25 000 000 000 000 000  346  235    0-.....
GLA47    6
  1C 2 0  25  65 000 000 000 000  320  279    0--....
  2C 1 0  15  35  55 000 000 000  346  264    0---...
  3C 2 0  25  45 000 000 000 000  372  279    0--....
  4BR0 0  35 000 000 000 000 000  399  264    0-.....
  5C 3 0  25 000 000 000 000 000  346  235    0-.....
  6C 3 0  15 000 000 000 000 000  295  264    0-.....
GLA48    5
  1CL0 0  25 000 000 000 000 000  320  279    0-.....
  2C 0 0  15  35  45  55 000 000  346  264    0----..
  3CL0 0  25 000 000 000 000 000  372  279    0-.....
  4CL0 0  25 000 000 000 000 000  346  235    0-.....
  5CL0 0  25 000 000 000 000 000  346  295    0-.....
GLA49    4
  1CL0 0  25 000 000 000 000 000  320  279    0-.....
  2C 1 0  15  35  45 000 000 000  346  264    0---...
  3CL0 0  25 000 000 000 000 000  372  279    0-.....
  4CL0 0  25 000 000 000 000 000  346  235    0-.....
GLA50    8
  1C 1 0  22  61 000 000 000 000  338  291    0--....
  2C 1 0  12  31 000 000 000 000  353  318    0--....
  3C 1 0  21  42 000 000 000 000  383  318    0--....
  4C 0 0  32  51  75 000 000 000  399  291    0---...
  5C 1 0  41  62 000 000 000 000  383  265    0--....
  6C 1 0  52  11 000 000 000 000  353  265    0--....
  7C 1 0  45  86 000 000 000 000  428  291    0--....
  8O 0 0  76 000 000 000 000 000  443  265    0-.....
GLA51    9
  1C 1 0  22  61 000 000 000 000  338  291    0--....
  2C 1 0  12  31 000 000 000 000  353  318    0--....
  3C 1 0  21  42 000 000 000 000  383  318    0--....
  4C 0 0  32  51  75 000 000 000  399  291    0---...
  5C 1 0  41  62 000 000 000 000  383  265    0--....
  6C 1 0  52  11 000 000 000 000  353  265    0--....
  7C 0 0  45  86  95 000 000 000  428  291    0---...
  8O 0 0  76 000 000 000 000 000  443  265    0-.....
  9C 3 0  75 000 000 000 000 000  443  318    0-.....
GLA52    4
  1C 3 0  25 000 000 000 000 000  399  291    0-.....
  2C 0 0  15  36  45 000 000 000  428  291    0---...
  3O 0 0  26 000 000 000 000 000  443  265    0-.....
  4C 3 0  25 000 000 000 000 000  443  318    0-.....
GLA53    5
  1C 2 0  25  55 000 000 000 000  399  291    0--....
  2C 0 0  15  36  45 000 000 000  428  291    0---...
  3O 0 0  26 000 000 000 000 000  443  265    0-.....
  4C 3 0  25 000 000 000 000 000  443  318    0-.....
  5C 3 0  15 000 000 000 000 000  383  265    0-.....
GLA54    7
  1C 2 0  25  55 000 000 000 000  399  291    0--....
  2C 0 0  15  36  45 000 000 000  428  291    0---...
  3O 0 0  26 000 000 000 000 000  443  265    0-.....
  4C 3 0  25 000 000 000 000 000  443  318    0-.....
  5C 1 0  15  65  75 000 000 000  383  265    0---...
  6C 3 0  55 000 000 000 000 000  399  239    0-.....
  7C 3 0  55 000 000 000 000 000  353  265    0-.....
GLA55    7
  1O 0 0  25  45 000 000 000 000  399  291    0--....
  2C 1 0  15  35  75 000 000 000  428  291    0---...
  3C 3 0  25 000 000 000 000 000  443  318    0-.....
  4C 1 0  15  55  65 000 000 000  383  265    0---...
  5C 3 0  45 000 000 000 000 000  399  239    0-.....
  6C 3 0  45 000 000 000 000 000  353  265    0-.....
  7C 3 0  25 000 000 000 000 000  443  265    0-.....
GLA56   14
  1C 1 0  22  61 000 000 000 000  282  282    0--....
  2C 0 0  12  31  75 000 000 000  309  297    0---...
  3C 0 0  21  42 115 000 000 000  309  327    0---...
  4C 1 0  32  51 000 000 000 000  282  343    0--....
  5C 1 0  41  62 000 000 000 000  256  327    0--....
  6C 1 0  52  11 000 000 000 000  256  297    0--....
  7C 0 0  25  86  95 000 000 000  335  282    0---...
  8O 0 0  76 000 000 000 000 000  335  252    0-.....
  9O 0 0  75 105 000 000 000 000  360  296    0--....
 10C 3 0  95 000 000 000 000 000  386  282    0-.....
 11C 0 0  35 126 135 000 000 000  335  343    0---...
 12O 0 0 116 000 000 000 000 000  360  327    0-.....
 13O 0 0 115 145 000 000 000 000  335  374    0--....
 14C 3 0 135 000 000 000 000 000  360  388    0-.....
GLA57   20
  1C 1 0  22  61 000 000 000 000  282  282    0--....
  2C 0 0  12  31  75 000 000 000  309  297    0---...
  3C 0 0  21  42 115 000 000 000  309  327    0---...
  4C 1 0  32  51 000 000 000 000  282  343    0--....
  5C 1 0  41  62 000 000 000 000  256  327    0--....
  6C 1 0  52  11 000 000 000 000  256  297    0--....
  7C 0 0  25  86  95 000 000 000  335  282    0---...
  8O 0 0  76 000 000 000 000 000  335  252    0-.....
  9O 0 0  75 105 000 000 000 000  360  296    0--....
 10C 2 0  95 155 000 000 000 000  386  282    0--....
 11C 0 0  35 126 135 000 000 000  335  343    0---...
 12O 0 0 116 000 000 000 000 000  360  327    0-.....
 13O 0 0 115 145 000 000 000 000  335  374    0--....
 14C 2 0 135 185 000 000 000 000  360  388    0--....
 15C 2 0 105 165 000 000 000 000  413  297    0--....
 16C 2 0 155 175 000 000 000 000  438  282    0--....
 17C 3 0 165 000 000 000 000 000  465  297    0-.....
 18C 2 0 145 195 000 000 000 000  386  372    0--....
 19C 2 0 185 205 000 000 000 000  413  388    0--....
 20C 3 0 195 000 000 000 000 000  438  372    0-.....
GLA58   28
  1C 1 0  22  61 000 000 000 000  282  282    0--....
  2C 0 0  12  31  75 000 000 000  309  297    0---...
  3C 0 0  21  42 115 000 000 000  309  327    0---...
  4C 1 0  32  51 000 000 000 000  282  343    0--....
  5C 1 0  41  62 000 000 000 000  256  327    0--....
  6C 1 0  52  11 000 000 000 000  256  297    0--....
  7C 0 0  25  86  95 000 000 000  335  282    0---...
  8O 0 0  76 000 000 000 000 000  335  252    0-.....
  9O 0 0  75 105 000 000 000 000  360  296    0--....
 10C 2 0  95 155 000 000 000 000  386  282    0--....
 11C 0 0  35 126 135 000 000 000  335  343    0---...
 12O 0 0 116 000 000 000 000 000  360  327    0-.....
 13O 0 0 115 145 000 000 000 000  335  374    0--....
 14C 2 0 135 185 000 000 000 000  360  388    0--....
 15C 1 0 105 165 255 000 000 000  413  297    0---...
 16C 2 0 155 175 000 000 000 000  438  282    0--....
 17C 2 0 165 235 000 000 000 000  465  297    0--....
 18C 1 0 145 195 275 000 000 000  386  372    0---...
 19C 2 0 185 205 000 000 000 000  413  388    0--....
 20C 2 0 195 215 000 000 000 000  438  372    0--....
 21C 2 0 205 225 000 000 000 000  465  388    0--....
 22C 3 0 215 000 000 000 000 000  490  372    0-.....
 23C 2 0 175 245 000 000 000 000  490  282    0--....
 24C 3 0 235 000 000 000 000 000  516  297    0-.....
 25C 2 0 155 265 000 000 000 000  413  327    0--....
 26C 3 0 255 000 000 000 000 000  438  343    0-.....
 27C 2 0 185 285 000 000 000 000  386  402    0--....
 28C 3 0 275 000 000 000 000 000  413  418    0-.....
GLA59    6
  1C 3 0  25 000 000 000 000 000  345  282    0-.....
  2C 0 0  15  36  45 000 000 000  375  282    0---...
  3O 0 0  26 000 000 000 000 000  390  256    0-.....
  4O 0 0  25  55 000 000 000 000  390  308    0--....
  5C 2 0  45  65 000 000 000 000  420  308    0--....
  6C 3 0  55 000 000 000 000 000  434  334    0-.....
GLA60    7
  1C 0 0  21  51  66 000 000 000  370  270    0---...
  2O 0 0  11  31 000 000 000 000  393  288    0--....
  3C 1 0  21  41  75 000 000 000  384  316    0---...
  4C 2 0  31  51 000 000 000 000  354  316    0--....
  5O 0 0  41  11 000 000 000 000  345  288    0--....
  6O 0 0  16 000 000 000 000 000  370  240    0-.....
  7C 3 0  35 000 000 000 000 000  410  331    0-.....
GLA61    4
  1S 0 0  25  35  46 000 000 000  370  270    0---...
  2C 3 0  15 000 000 000 000 000  393  288    0-.....
  3C 3 0  15 000 000 000 000 000  345  288    0-.....
  4O 0 0  16 000 000 000 000 000  370  240    0-.....
GLA62    6
  1C 1 0  22  61 000 000 000 000  365  277    0--....
  2C 1 0  12  31 000 000 000 000  391  292    0--....
  3C 1 0  21  42 000 000 000 000  391  322    0--....
  4N 0 0  32  51 000 000 000 000  365  338    0--....
  5C 1 0  41  62 000 000 000 000  339  322    0--....
  6C 1 0  52  11 000 000 000 000  339  292    0--....
GLA63    5
  1C 1 0  26  35 000 000 000 000  375  281    0--....
  2O 0 0  16 000 000 000 000 000  390  255    0-.....
  3N 0 0  15  45  55 000 000 000  390  307    0---...
  4C 3 0  35 000 000 000 000 000  390  338    0-.....
  5C 3 0  35 000 000 000 000 000  415  292    0-.....
GLA64   24
  1C 2 0  21  61 000 000 000 000  303  277    0--....
  2C 2 0  11  31 000 000 000 000  319  303    0--....
  3C 2 0  21  41 000 000 000 000  348  303    0--....
  4C 0 0  31  51  75 135 000 000  363  277    0----..
  5C 2 0  41  61 000 000 000 000  348  251    0--....
  6C 2 0  51  11 000 000 000 000  319  251    0--....
  7C 0 0  45  82 121 000 000 000  388  238    0---...
  8C 1 0  72  91 000 000 000 000  388  209    0--....
  9C 0 0  81 102 245 000 000 000  413  194    0---...
 10C 0 0  92 111 195 000 000 000  440  209    0---...
 11C 1 0 101 122 000 000 000 000  440  238    0--....
 12C 1 0 112  71 000 000 000 000  413  252    0--....
 13C 0 0  45 142 181 000 000 000  400  315    0---...
 14C 1 0 132 151 000 000 000 000  431  315    0--....
 15C 0 0 141 162 235 000 000 000  445  341    0---...
 16C 0 0 152 171 215 000 000 000  430  368    0---...
 17C 1 0 161 182 000 000 000 000  400  368    0--....
 18C 1 0 172 131 000 000 000 000  385  341    0--....
 19O 0 0 105 205 000 000 000 000  465  193    0--....
 20C 3 0 195 000 000 000 000 000  465  163    0-.....
 21O 0 0 165 225 000 000 000 000  445  393    0--....
 22C 3 0 215 000 000 000 000 000  445  424    0-.....
 23C 3 0 155 000 000 000 000 000  475  341    0-.....
 24C 3 0  95 000 000 000 000 000  413  164    0-.....
GLA65   22
  1C 2 0  21  61 000 000 000 000  303  277    0--....
  2C 2 0  11  31 000 000 000 000  319  303    0--....
  3C 2 0  21  41 000 000 000 000  348  303    0--....
  4C 0 0  31  51  75 135 000 000  363  277    0----..
  5C 2 0  41  61 000 000 000 000  348  251    0--....
  6C 2 0  51  11 000 000 000 000  319  251    0--....
  7C 0 0  45  82 121 000 000 000  388  238    0---...
  8C 1 0  72  91 000 000 000 000  388  209    0--....
  9C 1 0  81 102 000 000 000 000  413  194    0--....
 10C 0 0  92 111 195 000 000 000  440  209    0---...
 11C 1 0 101 122 000 000 000 000  440  238    0--....
 12C 1 0 112  71 000 000 000 000  413  252    0--....
 13C 0 0  45 142 181 000 000 000  400  315    0---...
 14C 1 0 132 151 000 000 000 000  431  315    0--....
 15C 1 0 141 162 000 000 000 000  445  341    0--....
 16C 0 0 152 171 215 000 000 000  430  368    0---...
 17C 1 0 161 182 000 000 000 000  400  368    0--....
 18C 1 0 172 131 000 000 000 000  385  341    0--....
 19O 0 0 105 205 000 000 000 000  465  193    0--....
 20C 3 0 195 000 000 000 000 000  465  163    0-.....
 21O 0 0 165 225 000 000 000 000  445  393    0--....
 22C 3 0 215 000 000 000 000 000  445  424    0-.....
GLA66   40
  1C 0 0  22  61 135 000 000 000  350  281    0---...
  2C 1 0  12  31 000 000 000 000  365  307    0--....
  3C 1 0  21  42 000 000 000 000  395  307    0--....
  4C 0 0  32  51  75 000 000 000  409  281    0---...
  5C 1 0  41  62 000 000 000 000  395  255    0--....
  6C 1 0  52  11 000 000 000 000  365  255    0--....
  7C 0 0  45  82 121 000 000 000  440  281    0---...
  8C 1 0  72  91 000 000 000 000  454  255    0--....
  9C 1 0  81 102 000 000 000 000  484  255    0--....
 10C 0 0  92 111 145 000 000 000  500  281    0---...
 11C 1 0 101 122 000 000 000 000  484  307    0--....
 12C 1 0 112  71 000 000 000 000  454  307    0--....
 13N 0 0  15 155 215 000 000 000  320  281    0---...
 14N 0 0 105 275 335 000 000 000  529  281    0---...
 15C 0 0 135 162 201 000 000 000  304  255    0---...
 16C 1 0 152 171 000 000 000 000  275  255    0--....
 17C 1 0 161 182 000 000 000 000  261  229    0--....
 18C 1 0 172 191 000 000 000 000  275  203    0--....
 19C 1 0 181 202 000 000 000 000  304  203    0--....
 20C 1 0 192 151 000 000 000 000  319  229    0--....
 21C 0 0 135 222 261 000 000 000  304  307    0---...
 22C 1 0 212 231 000 000 000 000  320  333    0--....
 23C 0 0 221 242 395 000 000 000  305  359    0---...
 24C 1 0 232 251 000 000 000 000  275  359    0--....
 25C 1 0 241 262 000 000 000 000  260  333    0--....
 26C 1 0 252 211 000 000 000 000  273  307    0--....
 27C 0 0 145 282 321 000 000 000  545  255    0---...
 28C 1 0 272 291 000 000 000 000  529  229    0--....
 29C 1 0 281 302 000 000 000 000  543  203    0--....
 30C 1 0 292 311 000 000 000 000  575  203    0--....
 31C 1 0 301 322 000 000 000 000  590  229    0--....
 32C 1 0 312 271 000 000 000 000  576  255    0--....
 33C 0 0 145 342 381 000 000 000  545  307    0---...
 34C 1 0 332 351 000 000 000 000  576  307    0--....
 35C 1 0 341 362 000 000 000 000  590  333    0--....
 36C 1 0 352 371 000 000 000 000  575  359    0--....
 37C 0 0 361 382 405 000 000 000  543  359    0---...
 38C 1 0 372 331 000 000 000 000  529  333    0--....
 39C 3 0 235 000 000 000 000 000  320  385    0-.....
 40C 3 0 375 000 000 000 000 000  528  385    0-.....
GLA67   30
  1C 0 0  22  61 131 000 000 000  350  281    0---...
  2C 1 0  12  31 000 000 000 000  365  307    0--....
  3C 1 0  21  42 000 000 000 000  395  307    0--....
  4C 0 0  32  51  75 000 000 000  409  281    0---...
  5C 1 0  41  62 000 000 000 000  395  255    0--....
  6C 0 0  52  11 151 000 000 000  365  255    0---...
  7C 0 0  45  82 121 000 000 000  440  281    0---...
  8C 1 0  72  91 000 000 000 000  454  255    0--....
  9C 1 0  81 102 000 000 000 000  484  255    0--....
 10C 0 0  92 111 161 000 000 000  500  281    0---...
 11C 0 0 101 122 181 000 000 000  484  307    0---...
 12C 1 0 112  71 000 000 000 000  454  307    0--....
 13N 0 0  11 141 275 000 000 000  320  275    0---...
 14C 0 0 131 152 191 000 000 000  317  245    0---...
 15C 0 0 142  61 221 000 000 000  345  234    0---...
 16N 0 0 101 171 295 000 000 000  528  287    0---...
 17C 0 0 161 182 231 000 000 000  531  318    0---...
 18C 0 0 172 111 261 000 000 000  504  329    0---...
 19C 1 0 141 202 000 000 000 000  294  227    0--....
 20C 1 0 192 211 000 000 000 000  296  198    0--....
 21C 1 0 201 222 000 000 000 000  323  186    0--....
 22C 1 0 212 151 000 000 000 000  347  203    0--....
 23C 1 0 171 242 000 000 000 000  555  335    0--....
 24C 1 0 232 251 000 000 000 000  552  365    0--....
 25C 1 0 241 262 000 000 000 000  525  376    0--....
 26C 1 0 252 181 000 000 000 000  501  359    0--....
 27C 2 0 135 285 000 000 000 000  295  290    0--....
 28C 3 0 275 000 000 000 000 000  269  275    0-.....
 29C 2 0 165 305 000 000 000 000  555  272    0--....
 30C 3 0 295 000 000 000 000 000  580  287    0-.....
GLA68   38
  1C 0 0  22  61 131 000 000 000  350  281    0---...
  2C 1 0  12  31 000 000 000 000  365  307    0--....
  3C 1 0  21  42 000 000 000 000  395  307    0--....
  4C 0 0  32  51  75 000 000 000  409  281    0---...
  5C 1 0  41  62 000 000 000 000  395  255    0--....
  6C 0 0  52  11 151 000 000 000  365  255    0---...
  7C 0 0  45  82 121 000 000 000  440  281    0---...
  8C 1 0  72  91 000 000 000 000  454  255    0--....
  9C 1 0  81 102 000 000 000 000  484  255    0--....
 10C 0 0  92 111 161 000 000 000  500  281    0---...
 11C 0 0 101 122 181 000 000 000  484  307    0---...
 12C 1 0 112  71 000 000 000 000  454  307    0--....
 13N 0 0  11 141 275 000 000 000  320  275    0---...
 14C 0 0 131 152 191 000 000 000  317  245    0---...
 15C 0 0 142  61 221 000 000 000  345  234    0---...
 16N 0 0 101 171 335 000 000 000  528  287    0---...
 17C 0 0 161 182 231 000 000 000  531  318    0---...
 18C 0 0 172 111 261 000 000 000  504  329    0---...
 19C 1 0 141 202 000 000 000 000  294  227    0--....
 20C 1 0 192 211 000 000 000 000  296  198    0--....
 21C 1 0 201 222 000 000 000 000  323  186    0--....
 22C 1 0 212 151 000 000 000 000  347  203    0--....
 23C 1 0 171 242 000 000 000 000  555  335    0--....
 24C 1 0 232 251 000 000 000 000  552  365    0--....
 25C 1 0 241 262 000 000 000 000  525  376    0--....
 26C 1 0 252 181 000 000 000 000  501  359    0--....
 27C 0 0 135 282 321 000 000 000  295  290    0---...
 28C 1 0 272 291 000 000 000 000  295  322    0--....
 29C 1 0 281 302 000 000 000 000  269  335    0--....
 30C 1 0 292 311 000 000 000 000  243  320    0--....
 31C 1 0 301 322 000 000 000 000  243  289    0--....
 32C 1 0 312 271 000 000 000 000  269  275    0--....
 33C 0 0 165 342 381 000 000 000  555  272    0---...
 34C 1 0 332 351 000 000 000 000  555  242    0--....
 35C 1 0 341 362 000 000 000 000  580  228    0--....
 36C 1 0 352 371 000 000 000 000  606  242    0--....
 37C 1 0 361 382 000 000 000 000  606  272    0--....
 38C 1 0 372 331 000 000 000 000  580  287    0--....
GLA69   65
  1C 3 0  25 000 000 000 000 000  404  141    0-.....
  2C 0 0  15  35  45 105 000 000  430  156    0----..
  3C 3 0  25 000 000 000 000 000  456  141    0-.....
  4C 0 0  25  52  91 000 000 000  404  172    0---...
  5C 1 0  42  61 000 000 000 000  404  202    0--....
  6C 1 0  51  72 000 000 000 000  378  216    0--....
  7C 0 0  62  81 165 000 000 000  352  201    0---...
  8C 1 0  71  92 000 000 000 000  352  170    0--....
  9C 1 0  82  41 000 000 000 000  378  156    0--....
 10C 0 0  25 112 151 000 000 000  456  172    0---...
 11C 1 0 102 121 000 000 000 000  482  156    0--....
 12C 1 0 111 132 000 000 000 000  508  170    0--....
 13C 0 0 122 141 175 000 000 000  508  201    0---...
 14C 1 0 131 152 000 000 000 000  482  216    0--....
 15C 1 0 142 101 000 000 000 000  456  202    0--....
 16O 0 0  75 185 000 000 000 000  326  216    0--....
 17O 0 0 135 245 000 000 000 000  534  216    0--....
 18C 0 0 165 192 231 000 000 000  312  242    0---...
 19C 1 0 182 201 000 000 000 000  326  269    0--....
 20C 1 0 191 212 000 000 000 000  312  295    0--....
 21C 0 0 202 221 305 000 000 000  281  295    0---...
 22C 1 0 211 232 000 000 000 000  266  269    0--....
 23C 1 0 222 181 000 000 000 000  280  242    0--....
 24C 0 0 175 252 291 000 000 000  550  242    0---...
 25C 1 0 242 261 000 000 000 000  580  242    0--....
 26C 1 0 251 272 000 000 000 000  594  269    0--....
 27C 0 0 262 281 365 000 000 000  580  295    0---...
 28C 1 0 271 292 000 000 000 000  549  295    0--....
 29C 1 0 282 241 000 000 000 000  534  269    0--....
 30C 0 0 215 312 351 000 000 000  281  325    0---...
 31N 0 0 302 321 000 000 000 000  307  340    0--....
 32C 0 0 311 332 425 000 000 000  307  370    0---...
 33N 0 0 322 341 000 000 000 000  281  384    0--....
 34C 0 0 331 352 605 000 000 000  255  370    0---...
 35N 0 0 342 301 000 000 000 000  255  340    0--....
 36C 0 0 275 372 411 000 000 000  580  325    0---...
 37N 0 0 362 381 000 000 000 000  605  340    0--....
 38C 0 0 371 392 545 000 000 000  605  370    0---...
 39N 0 0 382 401 000 000 000 000  580  384    0--....
 40C 0 0 391 412 485 000 000 000  553  370    0---...
 41N 0 0 402 361 000 000 000 000  553  340    0--....
 42C 0 0 325 432 471 000 000 000  334  384    0---...
 43C 1 0 422 441 000 000 000 000  359  370    0--....
 44C 1 0 431 452 000 000 000 000  385  383    0--....
 45C 1 0 442 461 000 000 000 000  385  415    0--....
 46C 1 0 451 472 000 000 000 000  359  429    0--....
 47C 1 0 462 421 000 000 000 000  334  415    0--....
 48C 0 0 405 492 531 000 000 000  527  384    0---...
 49C 1 0 482 501 000 000 000 000  527  415    0--....
 50C 1 0 491 512 000 000 000 000  501  428    0--....
 51C 1 0 502 521 000 000 000 000  475  415    0--....
 52C 1 0 511 532 000 000 000 000  475  384    0--....
 53C 1 0 522 481 000 000 000 000  501  370    0--....
 54C 0 0 385 552 591 000 000 000  631  384    0---...
 55C 1 0 542 561 000 000 000 000  657  370    0--....
 56C 1 0 551 572 000 000 000 000  683  383    0--....
 57C 1 0 562 581 000 000 000 000  683  415    0--....
 58C 1 0 571 592 000 000 000 000  657  429    0--....
 59C 1 0 582 541 000 000 000 000  631  415    0--....
 60C 0 0 345 612 651 000 000 000  230  384    0---...
 61C 1 0 602 621 000 000 000 000  230  415    0--....
 62C 1 0 611 632 000 000 000 000  203  428    0--....
 63C 1 0 622 641 000 000 000 000  178  415    0--....
 64C 1 0 631 652 000 000 000 000  178  384    0--....
 65C 1 0 642 601 000 000 000 000  203  370    0--....
GLA70   69
  1C 3 0  25 000 000 000 000 000  404  130    0-.....
  2C 0 0  15  35  45 105 000 000  430  146    0----..
  3C 3 0  25 000 000 000 000 000  456  130    0-.....
  4C 0 0  25  52  91 000 000 000  404  160    0---...
  5C 1 0  42  61 000 000 000 000  404  192    0--....
  6C 0 0  51  72 675 000 000 000  378  205    0---...
  7C 0 0  62  81 165 000 000 000  352  190    0---...
  8C 0 0  71  92 665 000 000 000  352  160    0---...
  9C 1 0  82  41 000 000 000 000  378  146    0--....
 10C 0 0  25 112 151 000 000 000  456  160    0---...
 11C 1 0 102 121 000 000 000 000  482  146    0--....
 12C 0 0 111 132 695 000 000 000  508  160    0---...
 13C 0 0 122 141 175 000 000 000  508  190    0---...
 14C 0 0 131 152 685 000 000 000  482  205    0---...
 15C 1 0 142 101 000 000 000 000  456  192    0--....
 16O 0 0  75 185 000 000 000 000  326  205    0--....
 17O 0 0 135 245 000 000 000 000  534  205    0--....
 18C 0 0 165 192 231 000 000 000  312  231    0---...
 19C 1 0 182 201 000 000 000 000  326  257    0--....
 20C 1 0 191 212 000 000 000 000  312  284    0--....
 21C 0 0 202 221 305 000 000 000  281  284    0---...
 22C 1 0 211 232 000 000 000 000  266  257    0--....
 23C 1 0 222 181 000 000 000 000  280  231    0--....
 24C 0 0 175 252 291 000 000 000  550  231    0---...
 25C 1 0 242 261 000 000 000 000  580  231    0--....
 26C 1 0 251 272 000 000 000 000  594  257    0--....
 27C 0 0 262 281 365 000 000 000  580  284    0---...
 28C 1 0 271 292 000 000 000 000  549  284    0--....
 29C 1 0 282 241 000 000 000 000  534  257    0--....
 30C 0 0 215 312 351 000 000 000  281  313    0---...
 31N 0 0 302 321 000 000 000 000  307  328    0--....
 32C 0 0 311 332 425 000 000 000  307  358    0---...
 33N 0 0 322 341 000 000 000 000  281  374    0--....
 34C 0 0 331 352 605 000 000 000  255  358    0---...
 35N 0 0 342 301 000 000 000 000  255  328    0--....
 36C 0 0 275 372 411 000 000 000  580  313    0---...
 37N 0 0 362 381 000 000 000 000  605  328    0--....
 38C 0 0 371 392 545 000 000 000  605  358    0---...
 39N 0 0 382 401 000 000 000 000  580  374    0--....
 40C 0 0 391 412 485 000 000 000  553  358    0---...
 41N 0 0 402 361 000 000 000 000  553  328    0--....
 42C 0 0 325 432 471 000 000 000  334  374    0---...
 43C 1 0 422 441 000 000 000 000  359  358    0--....
 44C 1 0 431 452 000 000 000 000  385  372    0--....
 45C 1 0 442 461 000 000 000 000  385  403    0--....
 46C 1 0 451 472 000 000 000 000  359  418    0--....
 47C 1 0 462 421 000 000 000 000  334  404    0--....
 48C 0 0 405 492 531 000 000 000  527  374    0---...
 49C 1 0 482 501 000 000 000 000  527  403    0--....
 50C 1 0 491 512 000 000 000 000  501  418    0--....
 51C 1 0 502 521 000 000 000 000  475  403    0--....
 52C 1 0 511 532 000 000 000 000  475  374    0--....
 53C 1 0 522 481 000 000 000 000  501  359    0--....
 54C 0 0 385 552 591 000 000 000  631  374    0---...
 55C 1 0 542 561 000 000 000 000  657  358    0--....
 56C 1 0 551 572 000 000 000 000  683  372    0--....
 57C 1 0 562 581 000 000 000 000  683  403    0--....
 58C 1 0 571 592 000 000 000 000  657  418    0--....
 59C 1 0 582 541 000 000 000 000  631  404    0--....
 60C 0 0 345 612 651 000 000 000  230  374    0---...
 61C 1 0 602 621 000 000 000 000  230  403    0--....
 62C 1 0 611 632 000 000 000 000  203  418    0--....
 63C 1 0 622 641 000 000 000 000  178  403    0--....
 64C 1 0 631 652 000 000 000 000  178  374    0--....
 65C 1 0 642 601 000 000 000 000  203  359    0--....
 66C 3 0  85 000 000 000 000 000  326  144    0-.....
 67C 3 0  65 000 000 000 000 000  378  236    0-.....
 68C 3 0 145 000 000 000 000 000  482  236    0-.....
 69C 3 0 125 000 000 000 000 000  534  144    0-.....
GLA71   71
  1C 2 0  21 661 000 000 000 000  404  200    0--....
  2C 0 0  11  31  45 105 000 000  430  215    0----..
  3C 2 0  21 681 000 000 000 000  456  200    0--....
  4C 0 0  25  52  91 000 000 000  404  230    0---...
  5C 1 0  42  61 000 000 000 000  404  262    0--....
  6C 1 0  51  72 000 000 000 000  378  275    0--....
  7C 0 0  62  81 165 000 000 000  352  261    0---...
  8C 1 0  71  92 000 000 000 000  352  229    0--....
  9C 1 0  82  41 000 000 000 000  378  215    0--....
 10C 0 0  25 112 151 000 000 000  456  230    0---...
 11C 1 0 102 121 000 000 000 000  482  215    0--....
 12C 1 0 111 132 000 000 000 000  508  229    0--....
 13C 0 0 122 141 175 000 000 000  508  261    0---...
 14C 1 0 131 152 000 000 000 000  482  275    0--....
 15C 1 0 142 101 000 000 000 000  456  262    0--....
 16O 0 0  75 185 000 000 000 000  326  275    0--....
 17O 0 0 135 245 000 000 000 000  534  275    0--....
 18C 0 0 165 192 231 000 000 000  312  301    0---...
 19C 1 0 182 201 000 000 000 000  326  327    0--....
 20C 1 0 191 212 000 000 000 000  312  353    0--....
 21C 0 0 202 221 305 000 000 000  281  353    0---...
 22C 1 0 211 232 000 000 000 000  266  327    0--....
 23C 1 0 222 181 000 000 000 000  280  301    0--....
 24C 0 0 175 252 291 000 000 000  550  301    0---...
 25C 1 0 242 261 000 000 000 000  580  301    0--....
 26C 1 0 251 272 000 000 000 000  594  327    0--....
 27C 0 0 262 281 365 000 000 000  580  353    0---...
 28C 1 0 271 292 000 000 000 000  549  353    0--....
 29C 1 0 282 241 000 000 000 000  534  327    0--....
 30C 0 0 215 312 351 000 000 000  281  383    0---...
 31N 0 0 302 321 000 000 000 000  307  399    0--....
 32C 0 0 311 332 425 000 000 000  307  428    0---...
 33N 0 0 322 341 000 000 000 000  281  443    0--....
 34C 0 0 331 352 605 000 000 000  255  428    0---...
 35N 0 0 342 301 000 000 000 000  255  399    0--....
 36C 0 0 275 372 411 000 000 000  580  383    0---...
 37N 0 0 362 381 000 000 000 000  605  399    0--....
 38C 0 0 371 392 545 000 000 000  605  428    0---...
 39N 0 0 382 401 000 000 000 000  580  443    0--....
 40C 0 0 391 412 485 000 000 000  553  428    0---...
 41N 0 0 402 361 000 000 000 000  553  399    0--....
 42C 0 0 325 432 471 000 000 000  334  443    0---...
 43C 1 0 422 441 000 000 000 000  359  428    0--....
 44C 1 0 431 452 000 000 000 000  385  443    0--....
 45C 1 0 442 461 000 000 000 000  385  474    0--....
 46C 1 0 451 472 000 000 000 000  359  488    0--....
 47C 1 0 462 421 000 000 000 000  334  475    0--....
 48C 0 0 405 492 531 000 000 000  527  443    0---...
 49C 1 0 482 501 000 000 000 000  527  474    0--....
 50C 1 0 491 512 000 000 000 000  501  488    0--....
 51C 1 0 502 521 000 000 000 000  475  474    0--....
 52C 1 0 511 532 000 000 000 000  475  443    0--....
 53C 1 0 522 481 000 000 000 000  501  429    0--....
 54C 0 0 385 552 591 000 000 000  631  443    0---...
 55C 1 0 542 561 000 000 000 000  657  428    0--....
 56C 1 0 551 572 000 000 000 000  683  443    0--....
 57C 1 0 562 581 000 000 000 000  683  474    0--....
 58C 1 0 571 592 000 000 000 000  657  488    0--....
 59C 1 0 582 541 000 000 000 000  631  475    0--....
 60C 0 0 345 612 651 000 000 000  230  443    0---...
 61C 1 0 602 621 000 000 000 000  230  474    0--....
 62C 1 0 611 632 000 000 000 000  203  488    0--....
 63C 1 0 622 641 000 000 000 000  178  474    0--....
 64C 1 0 631 652 000 000 000 000  178  443    0--....
 65C 1 0 642 601 000 000 000 000  203  429    0--....
 66C 0 0  11 671 705 715 000 000  404  170    0----..
 67C 2 0 661 681 000 000 000 000  430  156    0--....
 68C 1 0 671  31 695 000 000 000  456  170    0---...
 69C 3 0 685 000 000 000 000 000  482  156    0-.....
 70C 3 0 665 000 000 000 000 000  390  144    0-.....
 71C 3 0 665 000 000 000 000 000  375  170    0-.....
GLA72   76
  1C 2 0  21 661 000 000 000 000  404  200    0--....
  2C 0 0  11  31  45 105 000 000  430  215    0----..
  3C 2 0  21 671 000 000 000 000  456  200    0--....
  4C 0 0  25  52  91 000 000 000  404  230    0---...
  5C 1 0  42  61 000 000 000 000  404  262    0--....
  6C 1 0  51  72 000 000 000 000  378  275    0--....
  7C 0 0  62  81 165 000 000 000  352  261    0---...
  8C 1 0  71  92 000 000 000 000  352  229    0--....
  9C 1 0  82  41 000 000 000 000  378  215    0--....
 10C 0 0  25 112 151 000 000 000  456  230    0---...
 11C 1 0 102 121 000 000 000 000  482  215    0--....
 12C 1 0 111 132 000 000 000 000  508  229    0--....
 13C 0 0 122 141 175 000 000 000  508  261    0---...
 14C 1 0 131 152 000 000 000 000  482  275    0--....
 15C 1 0 142 101 000 000 000 000  456  262    0--....
 16O 0 0  75 185 000 000 000 000  326  275    0--....
 17O 0 0 135 245 000 000 000 000  534  275    0--....
 18C 0 0 165 192 231 000 000 000  312  301    0---...
 19C 1 0 182 201 000 000 000 000  326  327    0--....
 20C 1 0 191 212 000 000 000 000  312  353    0--....
 21C 0 0 202 221 305 000 000 000  281  353    0---...
 22C 1 0 211 232 000 000 000 000  266  327    0--....
 23C 1 0 222 181 000 000 000 000  280  301    0--....
 24C 0 0 175 252 291 000 000 000  550  301    0---...
 25C 1 0 242 261 000 000 000 000  580  301    0--....
 26C 1 0 251 272 000 000 000 000  594  327    0--....
 27C 0 0 262 281 365 000 000 000  580  353    0---...
 28C 1 0 271 292 000 000 000 000  549  353    0--....
 29C 1 0 282 241 000 000 000 000  534  327    0--....
 30C 0 0 215 312 351 000 000 000  281  383    0---...
 31N 0 0 302 321 000 000 000 000  307  399    0--....
 32C 0 0 311 332 425 000 000 000  307  428    0---...
 33N 0 0 322 341 000 000 000 000  281  443    0--....
 34C 0 0 331 352 605 000 000 000  255  428    0---...
 35N 0 0 342 301 000 000 000 000  255  399    0--....
 36C 0 0 275 372 411 000 000 000  580  383    0---...
 37N 0 0 362 381 000 000 000 000  605  399    0--....
 38C 0 0 371 392 545 000 000 000  605  428    0---...
 39N 0 0 382 401 000 000 000 000  580  443    0--....
 40C 0 0 391 412 485 000 000 000  553  428    0---...
 41N 0 0 402 361 000 000 000 000  553  399    0--....
 42C 0 0 325 432 471 000 000 000  334  443    0---...
 43C 1 0 422 441 000 000 000 000  359  428    0--....
 44C 1 0 431 452 000 000 000 000  385  443    0--....
 45C 1 0 442 461 000 000 000 000  385  474    0--....
 46C 1 0 451 472 000 000 000 000  359  488    0--....
 47C 1 0 462 421 000 000 000 000  334  475    0--....
 48C 0 0 405 492 531 000 000 000  527  443    0---...
 49C 1 0 482 501 000 000 000 000  527  474    0--....
 50C 1 0 491 512 000 000 000 000  501  488    0--....
 51C 1 0 502 521 000 000 000 000  475  474    0--....
 52C 1 0 511 532 000 000 000 000  475  443    0--....
 53C 1 0 522 481 000 000 000 000  501  429    0--....
 54C 0 0 385 552 591 000 000 000  631  443    0---...
 55C 1 0 542 561 000 000 000 000  657  428    0--....
 56C 1 0 551 572 000 000 000 000  683  443    0--....
 57C 1 0 562 581 000 000 000 000  683  474    0--....
 58C 1 0 571 592 000 000 000 000  657  488    0--....
 59C 1 0 582 541 000 000 000 000  631  475    0--....
 60C 0 0 345 612 651 000 000 000  230  443    0---...
 61C 1 0 602 621 000 000 000 000  230  474    0--....
 62C 1 0 611 632 000 000 000 000  203  488    0--....
 63C 1 0 622 641 000 000 000 000  178  474    0--....
 64C 1 0 631 652 000 000 000 000  178  443    0--....
 65C 1 0 642 601 000 000 000 000  203  429    0--....
 66C 2 0  11 681 000 000 000 000  404  170    0--....
 67C 1 0  31 741 755 000 000 000  456  170    0---...
 68C 2 0 661 691 000 000 000 000  378  156    0--....
 69C 2 0 681 701 000 000 000 000  378  125    0--....
 70C 2 0 691 711 000 000 000 000  404  110    0--....
 71C 2 0 701 721 000 000 000 000  430  125    0--....
 72C 2 0 711 731 000 000 000 000  456  110    0--....
 73C 2 0 721 741 000 000 000 000  482  125    0--....
 74C 2 0 731 671 000 000 000 000  482  156    0--....
 75C 2 0 675 765 000 000 000 000  430  156    0--....
 76C 3 0 755 000 000 000 000 000  456  170    0-.....
GLA73   57
  1C 0 0  21  52 315 000 000 000  298  194    0---...
  2O 0 0  11  31 000 000 000 000  280  219    0--....
  3C 0 0  21  42 115 000 000 000  252  210    0---...
  4N 0 0  32  51 000 000 000 000  252  180    0--....
  5N 0 0  41  12 000 000 000 000  280  170    0--....
  6C 0 0  72 101 365 000 000 000  506  187    0---...
  7N 0 0  62  81 000 000 000 000  525  163    0--....
  8N 0 0  71  92 000 000 000 000  552  172    0--....
  9C 0 0  82 101 175 000 000 000  552  202    0---...
 10O 0 0  91  61 000 000 000 000  525  212    0--....
 11C 0 0  35 122 161 000 000 000  236  239    0---...
 12C 1 0 112 131 000 000 000 000  262  254    0--....
 13C 1 0 121 142 000 000 000 000  262  285    0--....
 14C 0 0 132 151 235 000 000 000  236  300    0---...
 15C 1 0 141 162 000 000 000 000  210  285    0--....
 16C 1 0 152 111 000 000 000 000  210  254    0--....
 17C 0 0  95 182 221 000 000 000  573  232    0---...
 18C 1 0 172 191 000 000 000 000  600  247    0--....
 19C 1 0 181 202 000 000 000 000  600  277    0--....
 20C 0 0 192 211 245 000 000 000  573  292    0---...
 21C 1 0 201 222 000 000 000 000  547  277    0--....
 22C 1 0 212 171 000 000 000 000  547  247    0--....
 23N 0 0 145 545 555 000 000 000  236  329    0---...
 24N 0 0 205 565 575 000 000 000  573  322    0---...
 25C 0 0 261 291 385 445 000 000  400  215    0----..
 26C 0 0 251 272 301 000 000 000  376  197    0---...
 27C 0 0 262 281 331 000 000 000  385  169    0---...
 28C 0 0 271 292 341 000 000 000  415  169    0---...
 29C 0 0 282 251 371 000 000 000  425  197    0---...
 30C 1 0 261 312 000 000 000 000  348  203    0--....
 31C 0 0 302 321  15 000 000 000  328  182    0---...
 32C 1 0 311 332 000 000 000 000  337  155    0--....
 33C 1 0 322 271 000 000 000 000  366  147    0--....
 34C 1 0 281 352 000 000 000 000  434  147    0--....
 35C 1 0 342 361 000 000 000 000  463  155    0--....
 36C 0 0 351 372  65 000 000 000  472  182    0---...
 37C 1 0 362 291 000 000 000 000  452  203    0--....
 38C 2 0 255 395 000 000 000 000  375  230    0--....
 39C 1 0 385 405 505 000 000 000  375  261    0---...
 40C 2 0 395 415 000 000 000 000  390  287    0--....
 41C 2 0 405 425 000 000 000 000  375  313    0--....
 42C 2 0 415 435 000 000 000 000  390  338    0--....
 43C 3 0 425 000 000 000 000 000  375  365    0-.....
 44C 2 0 255 455 000 000 000 000  426  230    0--....
 45C 1 0 445 465 525 000 000 000  426  261    0---...
 46C 2 0 455 475 000 000 000 000  411  287    0--....
 47C 2 0 465 485 000 000 000 000  426  313    0--....
 48C 2 0 475 495 000 000 000 000  411  338    0--....
 49C 3 0 485 000 000 000 000 000  426  365    0-.....
 50C 2 0 395 515 000 000 000 000  359  287    0--....
 51C 3 0 505 000 000 000 000 000  345  261    0-.....
 52C 2 0 455 535 000 000 000 000  441  287    0--....
 53C 3 0 525 000 000 000 000 000  456  261    0-.....
 54C 3 0 235 000 000 000 000 000  210  345    0-.....
 55C 3 0 235 000 000 000 000 000  262  345    0-.....
 56C 3 0 245 000 000 000 000 000  547  338    0-.....
 57C 3 0 245 000 000 000 000 000  600  338    0-.....
GLA74   57
  1C 0 0  21  52 315 000 000 000  298  194    0---...
  2O 0 0  11  31 000 000 000 000  280  219    0--....
  3C 0 0  21  42 115 000 000 000  252  210    0---...
  4N 0 0  32  51 000 000 000 000  252  180    0--....
  5N 0 0  41  12 000 000 000 000  280  170    0--....
  6C 0 0  72 101 365 000 000 000  506  187    0---...
  7N 0 0  62  81 000 000 000 000  525  163    0--....
  8N 0 0  71  92 000 000 000 000  552  172    0--....
  9C 0 0  82 101 175 000 000 000  552  202    0---...
 10O 0 0  91  61 000 000 000 000  525  212    0--....
 11C 0 0  35 122 161 000 000 000  236  239    0---...
 12C 1 0 112 131 000 000 000 000  262  254    0--....
 13C 1 0 121 142 000 000 000 000  262  285    0--....
 14C 0 0 132 151 235 000 000 000  236  300    0---...
 15C 1 0 141 162 000 000 000 000  210  285    0--....
 16C 1 0 152 111 000 000 000 000  210  254    0--....
 17C 0 0  95 182 221 000 000 000  573  232    0---...
 18C 1 0 172 191 000 000 000 000  600  247    0--....
 19C 1 0 181 202 000 000 000 000  600  277    0--....
 20C 0 0 192 211 245 000 000 000  573  292    0---...
 21C 1 0 201 222 000 000 000 000  547  277    0--....
 22C 1 0 212 171 000 000 000 000  547  247    0--....
 23N 0 0 145 385 395 000 000 000  236  329    0---...
 24N 0 0 205 405 415 000 000 000  573  322    0---...
 25C 0 0 261 291 425 485 000 000  400  215    0----..
 26C 0 0 251 272 301 000 000 000  376  197    0---...
 27C 0 0 262 281 331 000 000 000  385  169    0---...
 28C 0 0 271 292 341 000 000 000  415  169    0---...
 29C 0 0 282 251 371 000 000 000  425  197    0---...
 30C 1 0 261 312 000 000 000 000  348  203    0--....
 31C 0 0 302 321  15 000 000 000  328  182    0---...
 32C 1 0 311 332 000 000 000 000  337  155    0--....
 33C 1 0 322 271 000 000 000 000  366  147    0--....
 34C 1 0 281 352 000 000 000 000  434  147    0--....
 35C 1 0 342 361 000 000 000 000  463  155    0--....
 36C 0 0 351 372  65 000 000 000  472  182    0---...
 37C 1 0 362 291 000 000 000 000  452  203    0--....
 38C 3 0 235 000 000 000 000 000  210  345    0-.....
 39C 3 0 235 000 000 000 000 000  262  345    0-.....
 40C 3 0 245 000 000 000 000 000  547  338    0-.....
 41C 3 0 245 000 000 000 000 000  600  338    0-.....
 42C 0 0 255 432 471 000 000 000  375  230    0---...
 43C 1 0 422 441 000 000 000 000  375  262    0--....
 44C 1 0 431 452 000 000 000 000  348  275    0--....
 45C 0 0 442 461 545 000 000 000  322  261    0---...
 46C 1 0 451 472 000 000 000 000  322  229    0--....
 47C 1 0 462 421 000 000 000 000  348  215    0--....
 48C 0 0 255 492 531 000 000 000  426  230    0---...
 49C 1 0 482 501 000 000 000 000  452  215    0--....
 50C 1 0 491 512 000 000 000 000  478  229    0--....
 51C 0 0 502 521 565 000 000 000  478  261    0---...
 52C 1 0 511 532 000 000 000 000  452  275    0--....
 53C 1 0 522 481 000 000 000 000  426  262    0--....
 54O 0 0 455 555 000 000 000 000  296  275    0--....
 55C 3 0 545 000 000 000 000 000  296  305    0-.....
 56O 0 0 515 575 000 000 000 000  504  275    0--....
 57C 3 0 565 000 000 000 000 000  504  305    0-.....
GLA75   69
  1C 0 0  25  35  45 105 000 000  449  300    0----..
  2C 0 0  15 265 275 285 000 000  449  270    0----..
  3C 0 0  15 295 305 315 000 000  449  329    0----..
  4C 0 0  15  52  91 000 000 000  478  300    0---...
  5C 1 0  42  61 000 000 000 000  493  273    0--....
  6C 1 0  51  72 000 000 000 000  524  273    0--....
  7C 0 0  62  81 215 000 000 000  538  300    0---...
  8C 1 0  71  92 000 000 000 000  524  325    0--....
  9C 1 0  82  41 000 000 000 000  493  325    0--....
 10C 0 0  15 112 151 000 000 000  418  300    0---...
 11C 1 0 102 121 000 000 000 000  403  325    0--....
 12C 1 0 111 132 000 000 000 000  374  325    0--....
 13C 0 0 122 141 165 000 000 000  358  300    0---...
 14C 1 0 131 152 000 000 000 000  374  273    0--....
 15C 1 0 142 101 000 000 000 000  403  273    0--....
 16C 0 0 135 171 202 000 000 000  328  300    0---...
 17O 0 0 161 181 000 000 000 000  311  324    0--....
 18C 0 0 171 192 325 000 000 000  282  315    0---...
 19N 0 0 182 201 000 000 000 000  282  285    0--....
 20N 0 0 191 162 000 000 000 000  311  275    0--....
 21C 0 0  75 222 251 000 000 000  569  300    0---...
 22N 0 0 212 231 000 000 000 000  586  275    0--....
 23N 0 0 221 242 000 000 000 000  615  285    0--....
 24C 0 0 232 251 385 000 000 000  615  315    0---...
 25O 0 0 241 211 000 000 000 000  586  324    0--....
 26F 0 0  25 000 000 000 000 000  433  244    0-.....
 27F 0 0  25 000 000 000 000 000  449  239    0-.....
 28F 0 0  25 000 000 000 000 000  463  244    0-.....
 29F 0 0  35 000 000 000 000 000  463  355    0-.....
 30F 0 0  35 000 000 000 000 000  449  359    0-.....
 31F 0 0  35 000 000 000 000 000  433  355    0-.....
 32C 0 0 185 332 371 000 000 000  266  345    0---...
 33C 1 0 322 341 000 000 000 000  292  359    0--....
 34C 1 0 331 352 000 000 000 000  292  390    0--....
 35C 0 0 342 361 445 000 000 000  266  404    0---...
 36C 1 0 351 372 000 000 000 000  240  390    0--....
 37C 1 0 362 321 000 000 000 000  240  359    0--....
 38C 0 0 245 392 431 000 000 000  636  345    0---...
 39C 1 0 382 401 000 000 000 000  661  359    0--....
 40C 1 0 391 412 000 000 000 000  661  390    0--....
 41C 0 0 402 421 455 000 000 000  636  404    0---...
 42C 1 0 411 432 000 000 000 000  609  390    0--....
 43C 1 0 422 381 000 000 000 000  609  359    0--....
 44N 0 0 355 465 525 000 000 000  266  434    0---...
 45N 0 0 415 585 645 000 000 000  636  434    0---...
 46C 0 0 445 472 511 000 000 000  240  450    0---...
 47C 1 0 462 481 000 000 000 000  240  479    0--....
 48C 1 0 471 492 000 000 000 000  214  493    0--....
 49C 1 0 482 501 000 000 000 000  188  479    0--....
 50C 1 0 491 512 000 000 000 000  188  450    0--....
 51C 1 0 502 461 000 000 000 000  214  435    0--....
 52C 0 0 445 532 571 000 000 000  292  450    0---...
 53C 1 0 522 541 000 000 000 000  319  434    0--....
 54C 1 0 531 552 000 000 000 000  345  449    0--....
 55C 1 0 542 561 000 000 000 000  345  479    0--....
 56C 1 0 551 572 000 000 000 000  319  495    0--....
 57C 1 0 562 521 000 000 000 000  292  480    0--....
 58C 0 0 455 592 631 000 000 000  609  450    0---...
 59C 1 0 582 601 000 000 000 000  609  479    0--....
 60C 1 0 591 612 000 000 000 000  583  493    0--....
 61C 1 0 602 621 000 000 000 000  557  479    0--....
 62C 1 0 611 632 000 000 000 000  557  450    0--....
 63C 1 0 622 581 000 000 000 000  583  435    0--....
 64C 0 0 455 652 691 000 000 000  661  450    0---...
 65C 1 0 642 661 000 000 000 000  687  434    0--....
 66C 1 0 651 672 000 000 000 000  713  449    0--....
 67C 1 0 662 681 000 000 000 000  713  479    0--....
 68C 1 0 671 692 000 000 000 000  687  495    0--....
 69C 1 0 682 641 000 000 000 000  661  480    0--....
GLA76   54
  1C 0 0  22  61 125 000 000 000  418  167    0---...
  2C 1 0  12  31 000 000 000 000  403  193    0--....
  3C 1 0  21  42 000 000 000 000  374  193    0--....
  4C 0 0  32  51  75 000 000 000  358  167    0---...
  5C 1 0  41  62 000 000 000 000  374  140    0--....
  6C 1 0  52  11 000 000 000 000  403  140    0--....
  7C 0 0  45  81 112 000 000 000  328  167    0---...
  8O 0 0  71  91 000 000 000 000  311  190    0--....
  9C 0 0  81 102 175 000 000 000  282  181    0---...
 10N 0 0  92 111 000 000 000 000  282  151    0--....
 11N 0 0 101  72 000 000 000 000  311  142    0--....
 12C 0 0 132 161  15 000 000 000  454  167    0---...
 13N 0 0 122 141 000 000 000 000  472  142    0--....
 14N 0 0 131 152 000 000 000 000  500  151    0--....
 15C 0 0 142 161 235 000 000 000  500  181    0---...
 16O 0 0 151 121 000 000 000 000  472  190    0--....
 17C 0 0  95 182 221 000 000 000  266  212    0---...
 18C 1 0 172 191 000 000 000 000  292  226    0--....
 19C 1 0 181 202 000 000 000 000  292  256    0--....
 20C 0 0 192 211 295 000 000 000  266  271    0---...
 21C 1 0 201 222 000 000 000 000  240  256    0--....
 22C 1 0 212 171 000 000 000 000  240  226    0--....
 23C 0 0 155 242 281 000 000 000  522  212    0---...
 24C 1 0 232 251 000 000 000 000  547  226    0--....
 25C 1 0 241 262 000 000 000 000  547  256    0--....
 26C 0 0 252 271 305 000 000 000  522  271    0---...
 27C 1 0 261 282 000 000 000 000  495  256    0--....
 28C 1 0 272 231 000 000 000 000  495  226    0--....
 29N 0 0 205 315 375 000 000 000  266  301    0---...
 30N 0 0 265 435 495 000 000 000  522  301    0---...
 31C 0 0 295 322 361 000 000 000  240  316    0---...
 32C 1 0 312 331 000 000 000 000  240  347    0--....
 33C 1 0 321 342 000 000 000 000  214  360    0--....
 34C 1 0 332 351 000 000 000 000  188  347    0--....
 35C 1 0 341 362 000 000 000 000  188  316    0--....
 36C 1 0 352 311 000 000 000 000  214  302    0--....
 37C 0 0 295 382 421 000 000 000  292  316    0---...
 38C 1 0 372 391 000 000 000 000  319  301    0--....
 39C 1 0 381 402 000 000 000 000  345  315    0--....
 40C 1 0 392 411 000 000 000 000  345  347    0--....
 41C 1 0 401 422 000 000 000 000  319  361    0--....
 42C 1 0 412 371 000 000 000 000  292  347    0--....
 43C 0 0 305 442 481 000 000 000  495  316    0---...
 44C 1 0 432 451 000 000 000 000  495  347    0--....
 45C 1 0 441 462 000 000 000 000  470  360    0--....
 46C 1 0 452 471 000 000 000 000  443  347    0--....
 47C 1 0 461 482 000 000 000 000  443  316    0--....
 48C 1 0 472 431 000 000 000 000  470  302    0--....
 49C 0 0 305 502 541 000 000 000  547  316    0---...
 50C 1 0 492 511 000 000 000 000  573  301    0--....
 51C 1 0 501 522 000 000 000 000  600  315    0--....
 52C 1 0 512 531 000 000 000 000  600  347    0--....
 53C 1 0 521 542 000 000 000 000  573  361    0--....
 54C 1 0 532 491 000 000 000 000  547  347    0--....
GLA77   54
  1C 0 0  21  52 505 000 000 000  328  182    0---...
  2O 0 0  11  31 000 000 000 000  311  206    0--....
  3C 0 0  21  42 115 000 000 000  282  197    0---...
  4N 0 0  32  51 000 000 000 000  282  168    0--....
  5N 0 0  41  12 000 000 000 000  311  158    0--....
  6C 0 0  72 101 515 000 000 000  422  181    0---...
  7N 0 0  62  81 000 000 000 000  440  156    0--....
  8N 0 0  71  92 000 000 000 000  468  165    0--....
  9C 0 0  82 101 175 000 000 000  468  195    0---...
 10O 0 0  91  61 000 000 000 000  440  204    0--....
 11C 0 0  35 122 161 000 000 000  266  227    0---...
 12C 1 0 112 131 000 000 000 000  292  242    0--....
 13C 1 0 121 142 000 000 000 000  292  272    0--....
 14C 0 0 132 151 235 000 000 000  266  287    0---...
 15C 1 0 141 162 000 000 000 000  240  272    0--....
 16C 1 0 152 111 000 000 000 000  240  242    0--....
 17C 0 0  95 182 221 000 000 000  490  225    0---...
 18C 1 0 172 191 000 000 000 000  515  240    0--....
 19C 1 0 181 202 000 000 000 000  515  270    0--....
 20C 0 0 192 211 245 000 000 000  490  286    0---...
 21C 1 0 201 222 000 000 000 000  463  270    0--....
 22C 1 0 212 171 000 000 000 000  463  240    0--....
 23N 0 0 145 255 315 000 000 000  266  318    0---...
 24N 0 0 205 375 435 000 000 000  490  315    0---...
 25C 0 0 235 262 301 000 000 000  240  332    0---...
 26C 1 0 252 271 000 000 000 000  240  363    0--....
 27C 1 0 261 282 000 000 000 000  214  376    0--....
 28C 1 0 272 291 000 000 000 000  188  363    0--....
 29C 1 0 281 302 000 000 000 000  188  332    0--....
 30C 1 0 292 251 000 000 000 000  214  318    0--....
 31C 0 0 235 322 361 000 000 000  292  332    0---...
 32C 1 0 312 331 000 000 000 000  319  318    0--....
 33C 1 0 321 342 000 000 000 000  345  331    0--....
 34C 1 0 332 351 000 000 000 000  345  363    0--....
 35C 1 0 341 362 000 000 000 000  319  377    0--....
 36C 1 0 352 311 000 000 000 000  292  363    0--....
 37C 0 0 245 382 421 000 000 000  463  330    0---...
 38C 1 0 372 391 000 000 000 000  463  360    0--....
 39C 1 0 381 402 000 000 000 000  438  375    0--....
 40C 1 0 392 411 000 000 000 000  411  360    0--....
 41C 1 0 401 422 000 000 000 000  411  330    0--....
 42C 1 0 412 371 000 000 000 000  438  316    0--....
 43C 0 0 245 442 481 000 000 000  515  330    0---...
 44C 1 0 432 451 000 000 000 000  541  315    0--....
 45C 1 0 441 462 000 000 000 000  567  329    0--....
 46C 1 0 452 471 000 000 000 000  567  360    0--....
 47C 1 0 461 482 000 000 000 000  541  375    0--....
 48C 1 0 472 431 000 000 000 000  515  361    0--....
 49C 1 0 502 541 000 000 000 000  345  140    0--....
 50C 0 0 492 511  15 000 000 000  359  167    0---...
 51C 0 0 501 522  65 000 000 000  390  167    0---...
 52C 1 0 512 531 000 000 000 000  404  140    0--....
 53C 1 0 521 542 000 000 000 000  390  115    0--....
 54C 1 0 532 491 000 000 000 000  359  115    0--....
GLA78   58
  1N 0 0  25  85 145 000 000 000  402  300    0---...
  2C 0 0  15  32  71 000 000 000  402  270    0---...
  3C 1 0  22  41 000 000 000 000  376  255    0--....
  4C 1 0  31  52 000 000 000 000  376  225    0--....
  5C 0 0  42  61 305 000 000 000  402  211    0---...
  6C 1 0  51  72 000 000 000 000  428  225    0--....
  7C 1 0  62  21 000 000 000 000  428  255    0--....
  8C 0 0  15  92 131 000 000 000  428  315    0---...
  9C 1 0  82 101 000 000 000 000  454  300    0--....
 10C 1 0  91 112 000 000 000 000  480  315    0--....
 11C 0 0 102 121 255 000 000 000  480  345    0---...
 12C 1 0 111 132 000 000 000 000  454  360    0--....
 13C 1 0 122  81 000 000 000 000  428  347    0--....
 14C 0 0  15 152 191 000 000 000  376  315    0---...
 15C 1 0 142 161 000 000 000 000  376  345    0--....
 16C 1 0 151 172 000 000 000 000  350  359    0--....
 17C 0 0 162 181 205 000 000 000  325  345    0---...
 18C 1 0 171 192 000 000 000 000  325  315    0--....
 19C 1 0 182 141 000 000 000 000  350  301    0--....
 20N 0 0 175 211 241 000 000 000  298  360    0---...
 21C 0 0 201 222 391 000 000 000  295  390    0---...
 22C 0 0 212 231 421 000 000 000  266  397    0---...
 23C 0 0 221 242 351 000 000 000  250  370    0---...
 24C 0 0 232 201 381 000 000 000  271  349    0---...
 25N 0 0 115 261 291 000 000 000  506  360    0---...
 26C 0 0 251 272 471 000 000 000  533  349    0---...
 27C 0 0 262 281 501 000 000 000  553  370    0---...
 28C 0 0 271 292 431 000 000 000  540  397    0---...
 29C 0 0 282 251 461 000 000 000  509  390    0---...
 30N 0 0  55 311 341 000 000 000  402  181    0---...
 31C 0 0 301 322 511 000 000 000  378  162    0---...
 32C 0 0 312 331 541 000 000 000  388  134    0---...
 33C 0 0 321 342 551 000 000 000  418  134    0---...
 34C 0 0 332 301 581 000 000 000  426  162    0---...
 35C 1 0 231 362 000 000 000 000  222  363    0--....
 36C 1 0 352 371 000 000 000 000  212  334    0--....
 37C 1 0 361 382 000 000 000 000  233  313    0--....
 38C 1 0 372 241 000 000 000 000  263  320    0--....
 39C 1 0 211 402 000 000 000 000  315  413    0--....
 40C 1 0 392 411 000 000 000 000  306  441    0--....
 41C 1 0 401 422 000 000 000 000  277  447    0--....
 42C 1 0 412 221 000 000 000 000  257  425    0--....
 43C 1 0 281 442 000 000 000 000  550  425    0--....
 44C 1 0 432 451 000 000 000 000  528  450    0--....
 45C 1 0 441 462 000 000 000 000  499  443    0--....
 46C 1 0 452 291 000 000 000 000  490  413    0--....
 47C 1 0 261 482 000 000 000 000  543  320    0--....
 48C 1 0 472 491 000 000 000 000  571  313    0--....
 49C 1 0 481 502 000 000 000 000  591  335    0--....
 50C 1 0 492 271 000 000 000 000  582  365    0--....
 51C 1 0 311 522 000 000 000 000  350  168    0--....
 52C 1 0 512 531 000 000 000 000  330  147    0--....
 53C 1 0 521 542 000 000 000 000  339  120    0--....
 54C 1 0 532 321 000 000 000 000  368  112    0--....
 55C 1 0 331 562 000 000 000 000  436  112    0--....
 56C 1 0 552 571 000 000 000 000  465  120    0--....
 57C 1 0 561 582 000 000 000 000  475  147    0--....
 58C 1 0 572 341 000 000 000 000  454  168    0--....
GLA79   55
  1C 0 0  22  61  75 000 000 000  397  306    0---...
  2C 1 0  12  31 000 000 000 000  413  332    0--....
  3C 1 0  21  42 000 000 000 000  443  332    0--....
  4C 0 0  32  51 325 000 000 000  457  306    0---...
  5C 1 0  41  62 000 000 000 000  443  280    0--....
  6C 1 0  52  11 000 000 000 000  413  280    0--....
  7N 0 0  15  85 145 000 000 000  368  306    0---...
  8C 0 0  75  92 131 000 000 000  352  280    0---...
  9C 1 0  82 101 000 000 000 000  322  280    0--....
 10C 1 0  91 112 000 000 000 000  309  254    0--....
 11C 0 0 102 121 205 000 000 000  322  228    0---...
 12C 1 0 111 132 000 000 000 000  352  228    0--....
 13C 1 0 122  81 000 000 000 000  366  254    0--....
 14C 0 0  75 152 191 000 000 000  352  332    0---...
 15C 1 0 142 161 000 000 000 000  368  358    0--....
 16C 1 0 151 172 000 000 000 000  353  384    0--....
 17C 0 0 162 181 265 000 000 000  322  384    0---...
 18C 1 0 171 192 000 000 000 000  307  358    0--....
 19C 1 0 182 141 000 000 000 000  321  332    0--....
 20C 0 0 115 212 251 000 000 000  307  202    0---...
 21C 1 0 202 221 000 000 000 000  277  202    0--....
 22C 1 0 211 232 000 000 000 000  263  176    0--....
 23C 0 0 222 241 445 000 000 000  277  150    0---...
 24C 1 0 231 252 000 000 000 000  307  150    0--....
 25C 1 0 242 201 000 000 000 000  322  176    0--....
 26C 0 0 175 272 311 000 000 000  307  410    0---...
 27C 1 0 262 281 000 000 000 000  322  436    0--....
 28C 1 0 271 292 000 000 000 000  309  463    0--....
 29C 0 0 282 301 505 000 000 000  277  463    0---...
 30C 1 0 291 312 000 000 000 000  262  436    0--....
 31C 1 0 302 261 000 000 000 000  276  410    0--....
 32C 0 0  45 332 371 000 000 000  488  306    0---...
 33C 1 0 322 341 000 000 000 000  502  280    0--....
 34C 1 0 331 352 000 000 000 000  532  280    0--....
 35C 0 0 342 361 385 000 000 000  547  306    0---...
 36C 1 0 351 372 000 000 000 000  532  332    0--....
 37C 1 0 362 321 000 000 000 000  502  332    0--....
 38C 0 0 355 392 431 000 000 000  577  306    0---...
 39C 1 0 382 401 000 000 000 000  592  280    0--....
 40C 1 0 391 412 000 000 000 000  623  280    0--....
 41C 1 0 402 421 000 000 000 000  637  306    0--....
 42C 1 0 411 432 000 000 000 000  623  332    0--....
 43C 1 0 422 381 000 000 000 000  592  332    0--....
 44C 0 0 235 452 491 000 000 000  247  150    0---...
 45C 1 0 442 461 000 000 000 000  232  176    0--....
 46C 1 0 451 472 000 000 000 000  202  176    0--....
 47C 1 0 462 481 000 000 000 000  187  150    0--....
 48C 1 0 471 492 000 000 000 000  202  125    0--....
 49C 1 0 482 441 000 000 000 000  232  125    0--....
 50C 0 0 295 512 551 000 000 000  251  477    0---...
 51C 1 0 502 521 000 000 000 000  251  507    0--....
 52C 1 0 511 532 000 000 000 000  225  521    0--....
 53C 1 0 522 541 000 000 000 000  200  507    0--....
 54C 1 0 531 552 000 000 000 000  200  477    0--....
 55C 1 0 542 501 000 000 000 000  225  463    0--....
GLA80   66
  1C 0 0  22  61 615 000 000 000  402  270    0---...
  2C 1 0  12  31 000 000 000 000  376  255    0--....
  3C 1 0  21  42 000 000 000 000  376  225    0--....
  4C 0 0  32  51 295 000 000 000  402  211    0---...
  5C 1 0  41  62 000 000 000 000  428  225    0--....
  6C 1 0  52  11 000 000 000 000  428  255    0--....
  7C 0 0  82 121 635 000 000 000  456  359    0---...
  8C 1 0  72  91 000 000 000 000  482  345    0--....
  9C 1 0  81 102 000 000 000 000  508  358    0--....
 10C 0 0  92 111 245 000 000 000  508  390    0---...
 11C 1 0 101 122 000 000 000 000  482  404    0--....
 12C 1 0 112  71 000 000 000 000  456  390    0--....
 13C 0 0 142 181 655 000 000 000  354  361    0---...
 14C 1 0 132 151 000 000 000 000  354  391    0--....
 15C 1 0 141 162 000 000 000 000  328  405    0--....
 16C 0 0 152 171 195 000 000 000  302  391    0---...
 17C 1 0 161 182 000 000 000 000  302  361    0--....
 18C 1 0 172 131 000 000 000 000  328  347    0--....
 19N 0 0 165 205 235 000 000 000  276  406    0---...
 20C 0 0 195 212 381 000 000 000  273  436    0---...
 21C 1 0 202 411 000 000 000 000  244  443    0--....
 22C 1 0 232 341 000 000 000 000  228  416    0--....
 23C 0 0 222 195 371 000 000 000  250  395    0---...
 24N 0 0 105 255 285 000 000 000  534  404    0---...
 25C 0 0 245 262 461 000 000 000  561  393    0---...
 26C 1 0 252 491 000 000 000 000  581  415    0--....
 27C 1 0 282 421 000 000 000 000  567  440    0--....
 28C 0 0 272 245 451 000 000 000  538  434    0---...
 29N 0 0  45 305 335 000 000 000  402  181    0---...
 30C 0 0 295 312 501 000 000 000  378  162    0---...
 31C 1 0 302 531 000 000 000 000  388  134    0--....
 32C 1 0 332 541 000 000 000 000  418  134    0--....
 33C 0 0 322 295 571 000 000 000  426  162    0---...
 34C 1 0 221 352 000 000 000 000  200  409    0--....
 35C 1 0 342 361 000 000 000 000  190  380    0--....
 36C 0 0 351 372 585 000 000 000  211  358    0---...
 37C 1 0 362 231 000 000 000 000  242  365    0--....
 38C 1 0 201 392 000 000 000 000  294  458    0--....
 39C 1 0 382 401 000 000 000 000  285  488    0--....
 40C 1 0 391 412 000 000 000 000  255  493    0--....
 41C 1 0 402 211 000 000 000 000  235  470    0--....
 42C 1 0 271 432 000 000 000 000  577  470    0--....
 43C 1 0 422 441 000 000 000 000  556  493    0--....
 44C 0 0 431 452 605 000 000 000  526  488    0---...
 45C 1 0 442 281 000 000 000 000  518  457    0--....
 46C 1 0 251 472 000 000 000 000  570  365    0--....
 47C 1 0 462 481 000 000 000 000  600  357    0--....
 48C 1 0 471 492 000 000 000 000  619  379    0--....
 49C 1 0 482 261 000 000 000 000  611  408    0--....
 50C 1 0 301 512 000 000 000 000  350  168    0--....
 51C 1 0 502 521 000 000 000 000  330  147    0--....
 52C 1 0 511 532 000 000 000 000  339  120    0--....
 53C 1 0 522 311 000 000 000 000  368  112    0--....
 54C 1 0 321 552 000 000 000 000  436  112    0--....
 55C 1 0 542 561 000 000 000 000  465  120    0--....
 56C 0 0 551 572 595 000 000 000  475  147    0---...
 57C 1 0 562 331 000 000 000 000  454  168    0--....
 58C 3 0 365 000 000 000 000 000  211  328    0-.....
 59C 3 0 565 000 000 000 000 000  500  162    0-.....
 60C 3 0 445 000 000 000 000 000  511  513    0-.....
 61C 0 0  15 622 661 000 000 000  402  300    0---...
 62C 1 0 612 631 000 000 000 000  428  315    0--....
 63C 0 0 621 642  75 000 000 000  428  345    0---...
 64C 1 0 632 651 000 000 000 000  402  360    0--....
 65C 0 0 641 662 135 000 000 000  376  345    0---...
 66C 1 0 652 611 000 000 000 000  376  315    0--....
GLA81   70
  1N 0 0  25  85 145 000 000 000  402  343    0---...
  2C 0 0  15  32  71 000 000 000  402  313    0---...
  3C 1 0  22  41 000 000 000 000  376  297    0--....
  4C 1 0  31  52 000 000 000 000  376  267    0--....
  5C 0 0  42  61 305 000 000 000  402  252    0---...
  6C 1 0  51  72 000 000 000 000  428  267    0--....
  7C 1 0  62  21 000 000 000 000  428  297    0--....
  8C 0 0  15  92 131 000 000 000  428  357    0---...
  9C 1 0  82 101 000 000 000 000  454  343    0--....
 10C 1 0  91 112 000 000 000 000  480  356    0--....
 11C 0 0 102 121 255 000 000 000  480  388    0---...
 12C 1 0 111 132 000 000 000 000  454  402    0--....
 13C 1 0 122  81 000 000 000 000  428  388    0--....
 14C 0 0  15 152 191 000 000 000  376  357    0---...
 15C 1 0 142 161 000 000 000 000  376  388    0--....
 16C 1 0 151 172 000 000 000 000  350  401    0--....
[...]
 70F 0 0  35 000 000 000 000 000  472  143    0-.....
 71F 0 0  35 000 000 000 000 000  456  140    0-.....
GLA98   57
  1C 0 0  21  52 315 000 000 000  298  194    0---...
  2O 0 0  11  31 000 000 000 000  280  219    0--....
  3C 0 0  21  42 115 000 000 000  252  210    0---...
  4N 0 0  32  51 000 000 000 000  252  180    0--....
  5N 0 0  41  12 000 000 000 000  280  170    0--....
  6C 0 0  72 101 365 000 000 000  506  187    0---...
  7N 0 0  62  81 000 000 000 000  525  163    0--....
  8N 0 0  71  92 000 000 000 000  552  172    0--....
  9C 0 0  82 101 175 000 000 000  552  202    0---...
 10O 0 0  91  61 000 000 000 000  525  212    0--....
 11C 0 0  35 122 161 000 000 000  236  239    0---...
 12C 1 0 112 131 000 000 000 000  262  254    0--....
 13C 1 0 121 142 000 000 000 000  262  285    0--....
 14C 0 0 132 151 235 000 000 000  236  300    0---...
 15C 1 0 141 162 000 000 000 000  210  285    0--....
 16C 1 0 152 111 000 000 000 000  210  254    0--....
 17C 0 0  95 182 221 000 000 000  573  232    0---...
 18C 1 0 172 191 000 000 000 000  600  247    0--....
 19C 1 0 181 202 000 000 000 000  600  277    0--....
 20C 0 0 192 211 245 000 000 000  573  292    0---...
 21C 1 0 201 222 000 000 000 000  547  277    0--....
 22C 1 0 212 171 000 000 000 000  547  247    0--....
 23N 0 0 145 505 515 000 000 000  236  329    0---...
 24N 0 0 205 525 535 000 000 000  573  322    0---...
 25C 0 0 261 291 385 445 000 000  400  215    0----..
 26C 0 0 251 272 301 000 000 000  376  197    0---...
 27C 0 0 262 281 331 000 000 000  385  169    0---...
 28C 0 0 271 292 341 000 000 000  415  169    0---...
 29C 0 0 282 251 371 000 000 000  425  197    0---...
 30C 1 0 261 312 000 000 000 000  348  203    0--....
 31C 0 0 302 321  15 000 000 000  328  182    0---...
 32C 1 0 311 332 000 000 000 000  337  155    0--....
 33C 1 0 322 271 000 000 000 000  366  147    0--....
 34C 1 0 281 352 000 000 000 000  434  147    0--....
 35C 1 0 342 361 000 000 000 000  463  155    0--....
 36C 0 0 351 372  65 000 000 000  472  182    0---...
 37C 1 0 362 291 000 000 000 000  452  203    0--....
 38C 2 0 255 395 000 000 000 000  375  230    0--....
 39C 2 0 385 405 000 000 000 000  375  261    0--....
 40C 2 0 395 415 000 000 000 000  390  287    0--....
 41C 2 0 405 425 000 000 000 000  375  313    0--....
 42C 2 0 415 435 000 000 000 000  390  338    0--....
 43C 2 0 425 545 000 000 000 000  375  365    0--....
 44C 2 0 255 455 000 000 000 000  426  230    0--....
 45C 2 0 445 465 000 000 000 000  426  261    0--....
 46C 2 0 455 475 000 000 000 000  411  287    0--....
 47C 2 0 465 485 000 000 000 000  426  313    0--....
 48C 2 0 475 495 000 000 000 000  411  338    0--....
 49C 2 0 485 565 000 000 000 000  426  365    0--....
 50C 3 0 235 000 000 000 000 000  210  345    0-.....
 51C 3 0 235 000 000 000 000 000  262  345    0-.....
 52C 3 0 245 000 000 000 000 000  547  338    0-.....
 53C 3 0 245 000 000 000 000 000  600  338    0-.....
 54C 2 0 435 555 000 000 000 000  390  390    0--....
 55C 3 0 545 000 000 000 000 000  375  416    0-.....
 56C 2 0 495 575 000 000 000 000  411  390    0--....
 57C 3 0 565 000 000 000 000 000  426  416    0-.....
GLA99   54
  1C 0 0  21  52 535 000 000 000  328  172    0---...
  2O 0 0  11  31 000 000 000 000  311  195    0--....
  3C 0 0  21  42 115 000 000 000  282  186    0---...
  4N 0 0  32  51 000 000 000 000  282  156    0--....
  5N 0 0  41  12 000 000 000 000  311  147    0--....
  6C 0 0  72 101 515 000 000 000  454  172    0---...
  7N 0 0  62  81 000 000 000 000  472  147    0--....
  8N 0 0  71  92 000 000 000 000  500  156    0--....
  9C 0 0  82 101 175 000 000 000  500  186    0---...
 10O 0 0  91  61 000 000 000 000  472  195    0--....
 11C 0 0  35 122 161 000 000 000  266  216    0---...
 12C 1 0 112 131 000 000 000 000  292  231    0--....
 13C 1 0 121 142 000 000 000 000  292  262    0--....
 14C 0 0 132 151 235 000 000 000  266  276    0---...
 15C 1 0 141 162 000 000 000 000  240  262    0--....
 16C 1 0 152 111 000 000 000 000  240  231    0--....
 17C 0 0  95 182 221 000 000 000  522  216    0---...
 18C 1 0 172 191 000 000 000 000  547  231    0--....
 19C 1 0 181 202 000 000 000 000  547  262    0--....
 20C 0 0 192 211 245 000 000 000  522  276    0---...
 21C 1 0 201 222 000 000 000 000  495  262    0--....
 22C 1 0 212 171 000 000 000 000  495  231    0--....
 23N 0 0 145 255 315 000 000 000  266  306    0---...
 24N 0 0 205 375 435 000 000 000  522  306    0---...
 25C 0 0 235 262 301 000 000 000  240  322    0---...
 26C 1 0 252 271 000 000 000 000  240  351    0--....
 27C 1 0 261 282 000 000 000 000  214  365    0--....
 28C 1 0 272 291 000 000 000 000  188  351    0--....
 29C 1 0 281 302 000 000 000 000  188  322    0--....
 30C 1 0 292 251 000 000 000 000  214  307    0--....
 31C 0 0 235 322 361 000 000 000  292  322    0---...
 32C 1 0 312 331 000 000 000 000  319  306    0--....
 33C 1 0 321 342 000 000 000 000  345  320    0--....
 34C 1 0 332 351 000 000 000 000  345  351    0--....
 35C 1 0 341 362 000 000 000 000  319  366    0--....
 36C 1 0 352 311 000 000 000 000  292  352    0--....
 37C 0 0 245 382 421 000 000 000  495  322    0---...
 38C 1 0 372 391 000 000 000 000  495  351    0--....
 39C 1 0 381 402 000 000 000 000  470  365    0--....
 40C 1 0 392 411 000 000 000 000  443  351    0--....
 41C 1 0 401 422 000 000 000 000  443  322    0--....
 42C 1 0 412 371 000 000 000 000  470  307    0--....
 43C 0 0 245 442 481 000 000 000  547  322    0---...
 44C 1 0 432 451 000 000 000 000  573  306    0--....
 45C 1 0 441 462 000 000 000 000  600  320    0--....
 46C 1 0 452 471 000 000 000 000  600  351    0--....
 47C 1 0 461 482 000 000 000 000  573  366    0--....
 48C 1 0 472 431 000 000 000 000  547  352    0--....
 49C 1 0 502 541 000 000 000 000  395  126    0--....
 50C 1 0 492 511 000 000 000 000  420  141    0--....
 51C 0 0 501 522  65 000 000 000  420  172    0---...
 52C 1 0 512 531 000 000 000 000  395  186    0--....
 53C 0 0 521 542  15 000 000 000  368  172    0---...
 54C 1 0 532 491 000 000 000 000  368  141    0--....
GLA100  72
  1C 0 0  21  52 535 000 000 000  328  345    0---...
  2O 0 0  11  31 000 000 000 000  311  368    0--....
  3C 0 0  21  42 115 000 000 000  282  359    0---...
  4N 0 0  32  51 000 000 000 000  282  329    0--....
  5N 0 0  41  12 000 000 000 000  311  320    0--....
  6C 0 0  72 101 515 000 000 000  454  345    0---...
  7N 0 0  62  81 000 000 000 000  472  320    0--....
  8N 0 0  71  92 000 000 000 000  500  329    0--....
  9C 0 0  82 101 175 000 000 000  500  359    0---...
 10O 0 0  91  61 000 000 000 000  472  368    0--....
 11C 0 0  35 122 161 000 000 000  266  390    0---...
 12C 1 0 112 131 000 000 000 000  292  404    0--....
 13C 1 0 121 142 000 000 000 000  292  434    0--....
 14C 0 0 132 151 235 000 000 000  266  450    0---...
 15C 1 0 141 162 000 000 000 000  240  434    0--....
 16C 1 0 152 111 000 000 000 000  240  404    0--....
 17C 0 0  95 182 221 000 000 000  522  390    0---...
 18C 1 0 172 191 000 000 000 000  547  404    0--....
 19C 1 0 181 202 000 000 000 000  547  434    0--....
 20C 0 0 192 211 245 000 000 000  522  450    0---...
 21C 1 0 201 222 000 000 000 000  495  434    0--....
 22C 1 0 212 171 000 000 000 000  495  404    0--....
 23N 0 0 145 255 315 000 000 000  266  479    0---...
 24N 0 0 205 375 435 000 000 000  522  479    0---...
 25C 0 0 235 262 301 000 000 000  240  495    0---...
 26C 1 0 252 271 000 000 000 000  240  525    0--....
 27C 1 0 261 282 000 000 000 000  214  538    0--....
 28C 1 0 272 291 000 000 000 000  188  525    0--....
 29C 1 0 281 302 000 000 000 000  188  495    0--....
 30C 1 0 292 251 000 000 000 000  214  480    0--....
 31C 0 0 235 322 361 000 000 000  292  495    0---...
 32C 1 0 312 331 000 000 000 000  319  479    0--....
 33C 1 0 321 342 000 000 000 000  345  493    0--....
 34C 1 0 332 351 000 000 000 000  345  525    0--....
 35C 1 0 341 362 000 000 000 000  319  540    0--....
 36C 1 0 352 311 000 000 000 000  292  526    0--....
 37C 0 0 245 382 421 000 000 000  495  495    0---...
 38C 1 0 372 391 000 000 000 000  495  525    0--....
 39C 1 0 381 402 000 000 000 000  470  538    0--....
 40C 1 0 392 411 000 000 000 000  443  525    0--....
 41C 1 0 401 422 000 000 000 000  443  495    0--....
 42C 1 0 412 371 000 000 000 000  470  480    0--....
 43C 0 0 245 442 481 000 000 000  547  495    0---...
 44C 1 0 432 451 000 000 000 000  573  479    0--....
 45C 1 0 441 462 000 000 000 000  600  493    0--....
 46C 1 0 452 471 000 000 000 000  600  525    0--....
 47C 1 0 461 482 000 000 000 000  573  540    0--....
 48C 1 0 472 431 000 000 000 000  547  526    0--....
 49C 0 0 502 541 555 000 000 000  395  300    0---...
 50C 1 0 492 511 000 000 000 000  420  315    0--....
 51C 0 0 501 522  65 000 000 000  420  345    0---...
 52C 1 0 512 531 000 000 000 000  395  359    0--....
 53C 0 0 521 542  15 000 000 000  368  345    0---...
 54C 1 0 532 491 000 000 000 000  368  315    0--....
 55C 0 0 495 562 591 000 000 000  395  270    0---...
 56N 0 0 552 571 000 000 000 000  370  251    0--....
 57N 0 0 561 582 000 000 000 000  379  223    0--....
 58C 0 0 572 591 605 000 000 000  409  223    0---...
 59O 0 0 581 551 000 000 000 000  418  251    0--....
 60N 0 0 585 615 675 000 000 000  425  197    0---...
 61C 0 0 605 622 661 000 000 000  409  172    0---...
 62C 1 0 612 631 000 000 000 000  379  172    0--....
 63C 1 0 621 642 000 000 000 000  365  146    0--....
 64C 1 0 632 651 000 000 000 000  379  120    0--....
 65C 1 0 641 662 000 000 000 000  409  120    0--....
 66C 1 0 652 611 000 000 000 000  424  146    0--....
 67C 0 0 605 682 721 000 000 000  454  197    0---...
 68C 1 0 672 691 000 000 000 000  470  172    0--....
 69C 1 0 681 702 000 000 000 000  500  172    0--....
 70C 1 0 692 711 000 000 000 000  515  197    0--....
 71C 1 0 701 722 000 000 000 000  500  223    0--....
 72C 1 0 712 671 000 000 000 000  470  223    0--....
GLA101  61
  1N 0 0  25  85 145 000 000 000  402  300    0---...
  2C 0 0  15  32  71 000 000 000  402  270    0---...
  3C 1 0  22  41 000 000 000 000  376  255    0--....
  4C 1 0  31  52 000 000 000 000  376  225    0--....
  5C 0 0  42  61 305 000 000 000  402  211    0---...
  6C 1 0  51  72 000 000 000 000  428  225    0--....
  7C 1 0  62  21 000 000 000 000  428  255    0--....
  8C 0 0  15  92 131 000 000 000  428  315    0---...
  9C 1 0  82 101 000 000 000 000  454  300    0--....
 10C 1 0  91 112 000 000 000 000  480  315    0--....
 11C 0 0 102 121 255 000 000 000  480  345    0---...
 12C 1 0 111 132 000 000 000 000  454  360    0--....
 13C 1 0 122  81 000 000 000 000  428  347    0--....
 14C 0 0  15 152 191 000 000 000  376  315    0---...
 15C 1 0 142 161 000 000 000 000  376  345    0--....
 16C 1 0 151 172 000 000 000 000  350  359    0--....
 17C 0 0 162 181 205 000 000 000  325  345    0---...
 18C 1 0 171 192 000 000 000 000  325  315    0--....
 19C 1 0 182 141 000 000 000 000  350  301    0--....
 20N 0 0 175 215 245 000 000 000  298  360    0---...
 21C 0 0 205 222 391 000 000 000  295  390    0---...
 22C 1 0 212 421 000 000 000 000  266  397    0--....
 23C 1 0 242 351 000 000 000 000  250  370    0--....
 24C 0 0 232 205 381 000 000 000  271  349    0---...
 25N 0 0 115 265 295 000 000 000  506  360    0---...
 26C 0 0 255 272 471 000 000 000  533  349    0---...
 27C 1 0 262 501 000 000 000 000  553  370    0--....
 28C 1 0 292 431 000 000 000 000  540  397    0--....
 29C 0 0 282 255 461 000 000 000  509  390    0---...
 30N 0 0  55 315 345 000 000 000  402  181    0---...
 31C 0 0 305 322 511 000 000 000  378  162    0---...
 32C 1 0 312 541 000 000 000 000  388  134    0--....
 33C 1 0 342 551 000 000 000 000  418  134    0--....
 34C 0 0 332 305 581 000 000 000  426  162    0---...
 35C 1 0 231 362 000 000 000 000  222  363    0--....
 36C 1 0 352 371 000 000 000 000  212  334    0--....
 37C 0 0 361 382 595 000 000 000  233  313    0---...
 38C 1 0 372 241 000 000 000 000  263  320    0--....
 39C 1 0 211 402 000 000 000 000  315  413    0--....
 40C 1 0 392 411 000 000 000 000  306  441    0--....
 41C 1 0 401 422 000 000 000 000  277  447    0--....
 42C 1 0 412 221 000 000 000 000  257  425    0--....
 43C 1 0 281 442 000 000 000 000  550  425    0--....
 44C 1 0 432 451 000 000 000 000  528  450    0--....
 45C 0 0 441 462 615 000 000 000  499  443    0---...
 46C 1 0 452 291 000 000 000 000  490  413    0--....
 47C 1 0 261 482 000 000 000 000  543  320    0--....
 48C 1 0 472 491 000 000 000 000  571  313    0--....
 49C 1 0 481 502 000 000 000 000  591  335    0--....
 50C 1 0 492 271 000 000 000 000  582  365    0--....
 51C 1 0 311 522 000 000 000 000  350  168    0--....
 52C 1 0 512 531 000 000 000 000  330  147    0--....
 53C 1 0 521 542 000 000 000 000  339  120    0--....
 54C 1 0 532 321 000 000 000 000  368  112    0--....
 55C 1 0 331 562 000 000 000 000  436  112    0--....
 56C 1 0 552 571 000 000 000 000  465  120    0--....
 57C 0 0 561 582 605 000 000 000  475  147    0---...
 58C 1 0 572 341 000 000 000 000  454  168    0--....
 59C 3 0 375 000 000 000 000 000  233  282    0-.....
 60C 3 0 575 000 000 000 000 000  500  162    0-.....
 61C 3 0 455 000 000 000 000 000  483  470    0-.....
GLA102  70
  1N 0 0  25  85 145 000 000 000  402  343    0---...
  2C 0 0  15  32  71 000 000 000  402  313    0---...
  3C 1 0  22  41 000 000 000 000  376  297    0--....
  4C 1 0  31  52 000 000 000 000  376  267    0--....
  5C 0 0  42  61 305 000 000 000  402  252    0---...
  6C 1 0  51  72 000 000 000 000  428  267    0--....
  7C 1 0  62  21 000 000 000 000  428  297    0--....
  8C 0 0  15  92 131 000 000 000  428  357    0---...
  9C 1 0  82 101 000 000 000 000  454  343    0--....
 10C 1 0  91 112 000 000 000 000  480  356    0--....
 11C 0 0 102 121 255 000 000 000  480  388    0---...
 12C 1 0 111 132 000 000 000 000  454  402    0--....
 13C 1 0 122  81 000 000 000 000  428  388    0--....
 14C 0 0  15 152 191 000 000 000  376  357    0---...
 15C 1 0 142 161 000 000 000 000  376  388    0--....
 16C 1 0 151 172 000 000 000 000  350  401    0--....
 17C 0 0 162 181 205 000 000 000  325  388    0---...
 18C 1 0 171 192 000 000 000 000  325  357    0--....
 19C 1 0 182 141 000 000 000 000  350  343    0--....
 20N 0 0 175 215 245 000 000 000  298  402    0---...
 21C 0 0 205 222 391 000 000 000  295  432    0---...
 22C 1 0 212 421 000 000 000 000  266  438    0--....
 23C 1 0 242 351 000 000 000 000  250  413    0--....
 24C 0 0 232 205 381 000 000 000  271  390    0---...
 25N 0 0 115 265 295 000 000 000  506  402    0---...
 26C 0 0 255 272 471 000 000 000  533  390    0---...
 27C 1 0 262 501 000 000 000 000  553  413    0--....
 28C 1 0 292 431 000 000 000 000  540  438    0--....
 29C 0 0 282 255 461 000 000 000  509  432    0---...
 30N 0 0  55 315 345 000 000 000  402  222    0---...
 31C 0 0 305 322 511 000 000 000  378  204    0---...
 32C 1 0 312 541 000 000 000 000  388  176    0--....
 33C 1 0 342 551 000 000 000 000  418  176    0--....
 34C 0 0 332 305 581 000 000 000  426  204    0---...
 35C 1 0 231 362 000 000 000 000  222  405    0--....
 36C 0 0 352 371 591 000 000 000  212  376    0---...
 37C 0 0 361 382 621 000 000 000  233  354    0---...
 38C 1 0 372 241 000 000 000 000  263  361    0--....
 39C 1 0 211 402 000 000 000 000  315  454    0--....
 40C 1 0 392 411 000 000 000 000  306  483    0--....
 41C 1 0 401 422 000 000 000 000  277  490    0--....
 42C 1 0 412 221 000 000 000 000  257  466    0--....
 43C 1 0 281 442 000 000 000 000  550  468    0--....
 44C 0 0 432 451 631 000 000 000  528  491    0---...
 45C 0 0 441 462 661 000 000 000  499  485    0---...
 46C 1 0 452 291 000 000 000 000  490  455    0--....
 47C 1 0 261 482 000 000 000 000  543  363    0--....
 48C 1 0 472 491 000 000 000 000  571  355    0--....
 49C 1 0 481 502 000 000 000 000  591  377    0--....
 50C 1 0 492 271 000 000 000 000  582  406    0--....
 51C 1 0 311 522 000 000 000 000  350  211    0--....
 52C 1 0 512 531 000 000 000 000  330  189    0--....
 53C 1 0 521 542 000 000 000 000  339  161    0--....
 54C 1 0 532 321 000 000 000 000  368  155    0--....
 55C 1 0 331 562 000 000 000 000  436  155    0--....
 56C 0 0 552 571 671 000 000 000  465  161    0---...
 57C 0 0 561 582 701 000 000 000  475  189    0---...
 58C 1 0 572 341 000 000 000 000  454  211    0--....
 59C 1 0 361 602 000 000 000 000  184  370    0--....
 60C 1 0 592 611 000 000 000 000  175  340    0--....
 61C 1 0 601 622 000 000 000 000  196  318    0--....
 62C 1 0 612 371 000 000 000 000  225  325    0--....
 63C 1 0 441 642 000 000 000 000  538  520    0--....
 64C 1 0 632 651 000 000 000 000  518  544    0--....
 65C 1 0 641 662 000 000 000 000  488  538    0--....
 66C 1 0 652 451 000 000 000 000  478  508    0--....
 67C 1 0 561 682 000 000 000 000  484  140    0--....
 68C 1 0 672 691 000 000 000 000  513  146    0--....
 69C 1 0 681 702 000 000 000 000  522  175    0--....
 70C 1 0 692 571 000 000 000 000  502  195    0--....
GLA103  46
  1C 0 0  22  61 135 000 000 000  366  198    0---...
  2C 1 0  12  31 000 000 000 000  381  225    0--....
  3C 1 0  21  42 000 000 000 000  411  225    0--....
  4C 0 0  32  51  75 000 000 000  426  198    0---...
  5C 1 0  41  62 000 000 000 000  411  172    0--....
  6C 1 0  52  11 000 000 000 000  381  172    0--....
  7C 0 0  45  82 121 000 000 000  456  198    0---...
  8C 1 0  72  91 000 000 000 000  472  172    0--....
  9C 1 0  81 102 000 000 000 000  501  172    0--....
 10C 0 0  92 111 145 000 000 000  516  198    0---...
 11C 1 0 101 122 000 000 000 000  501  225    0--....
 12C 1 0 112  71 000 000 000 000  472  225    0--....
 13N 0 0  15 155 275 000 000 000  337  198    0---...
 14N 0 0 105 215 375 000 000 000  547  198    0---...
 15C 0 0 135 162 201 000 000 000  321  172    0---...
 16C 1 0 152 171 000 000 000 000  291  172    0--....
 17C 1 0 161 182 000 000 000 000  277  146    0--....
 18C 1 0 172 191 000 000 000 000  291  120    0--....
 19C 1 0 181 202 000 000 000 000  321  120    0--....
 20C 1 0 192 151 000 000 000 000  336  146    0--....
 21C 0 0 145 222 261 000 000 000  561  172    0---...
 22C 1 0 212 231 000 000 000 000  547  146    0--....
 23C 1 0 221 242 000 000 000 000  561  120    0--....
 24C 1 0 232 251 000 000 000 000  591  120    0--....
 25C 1 0 241 262 000 000 000 000  606  146    0--....
 26C 1 0 252 211 000 000 000 000  592  172    0--....
 27C 0 0 135 282 321 000 000 000  321  225    0---...
 28C 0 0 272 291 331 000 000 000  337  250    0---...
 29C 0 0 281 302 361 000 000 000  322  276    0---...
 30C 1 0 292 311 000 000 000 000  291  276    0--....
 31C 1 0 301 322 000 000 000 000  276  250    0--....
 32C 1 0 312 271 000 000 000 000  290  225    0--....
 33C 1 0 281 342 000 000 000 000  366  250    0--....
 34C 1 0 332 351 000 000 000 000  382  275    0--....
 35C 1 0 341 362 000 000 000 000  368  301    0--....
 36C 1 0 352 291 000 000 000 000  338  301    0--....
 37C 0 0 145 382 421 000 000 000  561  225    0---...
 38C 1 0 372 391 000 000 000 000  591  225    0--....
 39C 1 0 381 402 000 000 000 000  605  250    0--....
 40C 1 0 392 411 000 000 000 000  591  276    0--....
 41C 0 0 401 422 431 000 000 000  561  276    0---...
 42C 0 0 412 371 461 000 000 000  547  250    0---...
 43C 1 0 411 442 000 000 000 000  545  301    0--....
 44C 1 0 432 451 000 000 000 000  515  301    0--....
 45C 1 0 441 462 000 000 000 000  501  275    0--....
 46C 1 0 452 421 000 000 000 000  518  250    0--....